/share/apps/easybuild/software/OpenFOAM/v2106-foss-2021a/OpenFOAM-v2106/bin/tools/RunFunctions: line 339: mpirun: command not found
