/*---------------------------------------------------------------------------*\
| =========                 |                                                 |
| \\      /  F ield         | OpenFOAM: The Open Source CFD Toolbox           |
|  \\    /   O peration     | Version:  v2106                                 |
|   \\  /    A nd           | Website:  www.openfoam.com                      |
|    \\/     M anipulation  |                                                 |
\*---------------------------------------------------------------------------*/
Build  : _c15bfde3cb-20210624 OPENFOAM=2106
Arch   : "LSB;label=32;scalar=64"
Exec   : surfaceFeatureExtract
Date   : Jul 31 2023
Time   : 11:27:50
Host   : pirayu
PID    : 2378741
I/O    : uncollated
Case   : /home/finzeo/Tesis/Mallas/GTS_Storms_OF2106/GTS_1/airfoilWithLayers
nProcs : 1
trapFpe: Floating point exception trapping enabled (FOAM_SIGFPE).
fileModificationChecking : Monitoring run-time modified files using timeStampMaster (fileModificationSkew 5, maxFileModificationPolls 20)
allowSystemOperations : Allowing user-supplied system call operations

// * * * * * * * * * * * * * * * * * * * * * * * * * * * * * * * * * * * * * //
Create time


Note: Feature line extraction only valid on closed manifold surfaces

Reading surfaceFeatureExtractDict

Surfaces     : aerofoil.stl
Output       : aerofoil
Load options : offset
Write options: writeObj=yes writeVTK=off

Statistics:
Triangles    : 512 in 1 region(s)
Vertices     : 512
Bounding Box : (0 -1 -0.0594726502895355) (1.00000011920929 0 0.0594726502895355)

Constructing feature set from included angle 120
Selecting edges based purely on geometric tests: yes

Initial Feature set:
    points : 2
    edges  : 513
    of which
        region edges   : 512
        external edges : 0
        internal edges : 1

Final Feature set:
    points : 512
    of which
        convex             : 0
        concave            : 0
        mixed              : 2
        non-feature        : 510
    edges  : 513
    of which
        external edges     : 0
        internal edges     : 1
        flat edges         : 0
        open edges         : 512
        multiply connected : 0

Writing extendedFeatureEdgeMesh to "/home/finzeo/Tesis/Mallas/GTS_Storms_OF2106/GTS_1/airfoilWithLayers/constant/extendedFeatureEdgeMesh/aerofoil.extendedFeatureEdgeMesh"

Writing extendedEdgeMesh components to "/home/finzeo/Tesis/Mallas/GTS_Storms_OF2106/GTS_1/airfoilWithLayers/constant/extendedFeatureEdgeMesh/aerofoil"
Writing 0 convex feature points to "/home/finzeo/Tesis/Mallas/GTS_Storms_OF2106/GTS_1/airfoilWithLayers/constant/extendedFeatureEdgeMesh/aerofoil_convexFeaturePts.obj"
Writing 0 concave feature points to "/home/finzeo/Tesis/Mallas/GTS_Storms_OF2106/GTS_1/airfoilWithLayers/constant/extendedFeatureEdgeMesh/aerofoil_concaveFeaturePts.obj"
Writing 2 mixed feature points to "/home/finzeo/Tesis/Mallas/GTS_Storms_OF2106/GTS_1/airfoilWithLayers/constant/extendedFeatureEdgeMesh/aerofoil_mixedFeaturePts.obj"
Writing 2 mixed feature point structure to "/home/finzeo/Tesis/Mallas/GTS_Storms_OF2106/GTS_1/airfoilWithLayers/constant/extendedFeatureEdgeMesh/aerofoil_mixedFeaturePtsStructure.obj"
Writing 0 external edges to "/home/finzeo/Tesis/Mallas/GTS_Storms_OF2106/GTS_1/airfoilWithLayers/constant/extendedFeatureEdgeMesh/aerofoil_externalEdges.obj"
Writing 1 internal edges to "/home/finzeo/Tesis/Mallas/GTS_Storms_OF2106/GTS_1/airfoilWithLayers/constant/extendedFeatureEdgeMesh/aerofoil_internalEdges.obj"
Writing 0 flat edges to "/home/finzeo/Tesis/Mallas/GTS_Storms_OF2106/GTS_1/airfoilWithLayers/constant/extendedFeatureEdgeMesh/aerofoil_flatEdges.obj"
Writing 512 open edges to "/home/finzeo/Tesis/Mallas/GTS_Storms_OF2106/GTS_1/airfoilWithLayers/constant/extendedFeatureEdgeMesh/aerofoil_openEdges.obj"
Writing 0 multiple edges to "/home/finzeo/Tesis/Mallas/GTS_Storms_OF2106/GTS_1/airfoilWithLayers/constant/extendedFeatureEdgeMesh/aerofoil_multipleEdges.obj"
Writing 512 region edges to "/home/finzeo/Tesis/Mallas/GTS_Storms_OF2106/GTS_1/airfoilWithLayers/constant/extendedFeatureEdgeMesh/aerofoil_regionEdges.obj"
Writing 513 edge directions to "/home/finzeo/Tesis/Mallas/GTS_Storms_OF2106/GTS_1/airfoilWithLayers/constant/extendedFeatureEdgeMesh/aerofoil_edgeDirections.obj"

Writing featureEdgeMesh to "/home/finzeo/Tesis/Mallas/GTS_Storms_OF2106/GTS_1/airfoilWithLayers/constant/triSurface/aerofoil.eMesh"
Extracting curvature of surface at the points.
Calculating vertex normals
Calculating face curvature

ExecutionTime = 0 s  ClockTime = 0 s

End

