/*---------------------------------------------------------------------------*\
| =========                 |                                                 |
| \\      /  F ield         | OpenFOAM: The Open Source CFD Toolbox           |
|  \\    /   O peration     | Version:  v2106                                 |
|   \\  /    A nd           | Website:  www.openfoam.com                      |
|    \\/     M anipulation  |                                                 |
\*---------------------------------------------------------------------------*/
Build  : _c15bfde3cb-20210624 OPENFOAM=2106
Arch   : "LSB;label=32;scalar=64"
Exec   : simpleFoam
Date   : Jul 28 2023
Time   : 16:17:02
Host   : pirayu
PID    : 418641
I/O    : uncollated
Case   : /home/finzeo/Tesis/Mallas/GTS_Storms_OF2106/GTS_1/simpleCar
nProcs : 1
trapFpe: Floating point exception trapping enabled (FOAM_SIGFPE).
fileModificationChecking : Monitoring run-time modified files using timeStampMaster (fileModificationSkew 5, maxFileModificationPolls 20)
allowSystemOperations : Allowing user-supplied system call operations

// * * * * * * * * * * * * * * * * * * * * * * * * * * * * * * * * * * * * * //
Create time

Create mesh for time = 0


SIMPLE: convergence criteria
    field p	 tolerance 0.01
    field U	 tolerance 0.0001
    field "(k|epsilon)"	 tolerance 0.0001

Reading field p

Reading field U

Reading/calculating face flux field phi

Selecting incompressible transport model Newtonian
Selecting turbulence model type RAS
Selecting RAS turbulence model kEpsilon
RAS
{
    RASModel        kEpsilon;
    turbulence      on;
    printCoeffs     on;
    Cmu             0.09;
    C1              1.44;
    C2              1.92;
    C3              0;
    sigmak          1;
    sigmaEps        1.3;
}

No MRF models present

Creating finite volume options from "system/fvOptions"

Selecting finite volume options type explicitPorositySource
    Source: porosity1
    - selecting cells using cellZone porousZone
    - selected 10 cell(s) with volume 0.002
Porosity region porosity1:
    selecting model: DarcyForchheimer
    creating porous zone: porousZone
    origin: (0 0 0) e1: (1 0 0) e2: (0 1 0)
    local bounds: (0.08 0.4 0.1)


Starting time loop

forceCoeffs forceCoeffs1:
    p: p
    U: U
    rho: rhoInf
    Freestream density (rhoInf) set to 1
    Including porosity effects
    Activated data bins
    Employing 20 bins
    - cumuluative : 1
    - direction   : (1 0 0)
    Fields will be written

fieldAverage fieldAverage1:
    Restarting averaging for fields:
        U: starting averaging at time 0

Selecting runTimeCondition average
Selecting runTimeCondition maxDuration
Time = 1

smoothSolver:  Solving for Ux, Initial residual = 1, Final residual = 0.0201771, No Iterations 2
smoothSolver:  Solving for Uy, Initial residual = 1, Final residual = 0.0349436, No Iterations 2
GAMG:  Solving for p, Initial residual = 1, Final residual = 0.0779076, No Iterations 7
time step continuity errors : sum local = 0.0786298, global = -0.0120469, cumulative = -0.0120469
smoothSolver:  Solving for epsilon, Initial residual = 1, Final residual = 0.0441578, No Iterations 2
smoothSolver:  Solving for k, Initial residual = 1, Final residual = 0.0363839, No Iterations 2
ExecutionTime = 0.12 s  ClockTime = 0 s

forceCoeffs forceCoeffs1 execute:
    Coefficients
        Cd       : 28.3021	(pressure: 9.48285	viscous: 18.6194	porous: 0.199912)
        Cs       : -1.4949e-16	(pressure: -6.42812e-19	viscous: -1.49298e-16	porous: 4.50052e-19)
        Cl       : 1.59969	(pressure: 1.47853	viscous: 0.119385	porous: 0.00177116)
        CmRoll       : -0.0199961	(pressure: -0.0184816	viscous: -0.00149232	porous: -2.21395e-05)
        CmPitch       : 5.35794	(pressure: 1.92476	viscous: 3.4019	porous: 0.0312856)
        CmYaw       : 0.353777	(pressure: 0.118536	viscous: 0.232742	porous: 0.0024989)
        Cd(f)    : 14.1311
        Cd(r)    : 14.1711
        Cs(f)    : 0.353777
        Cs(r)    : -0.353777
        Cl(f)    : 6.15779
        Cl(r)    : -4.5581
runTimeControl runTimeControl1 output:
    average: condition1 averages:
        CdMean: 28.3021, delta: 0

    Conditions not met

Time = 2

smoothSolver:  Solving for Ux, Initial residual = 0.366903, Final residual = 0.00723666, No Iterations 2
smoothSolver:  Solving for Uy, Initial residual = 0.392123, Final residual = 0.0189926, No Iterations 2
GAMG:  Solving for p, Initial residual = 0.0610744, Final residual = 0.00359537, No Iterations 4
time step continuity errors : sum local = 0.095026, global = -0.0108153, cumulative = -0.0228622
smoothSolver:  Solving for epsilon, Initial residual = 0.561711, Final residual = 0.0558629, No Iterations 2
smoothSolver:  Solving for k, Initial residual = 0.420973, Final residual = 0.0416076, No Iterations 2
ExecutionTime = 0.15 s  ClockTime = 0 s

forceCoeffs forceCoeffs1 execute:
    Coefficients
        Cd       : 30.9268	(pressure: 13.7061	viscous: 17.0211	porous: 0.199655)
        Cs       : -2.86261e-17	(pressure: -9.65532e-19	viscous: -2.83282e-17	porous: 6.67657e-19)
        Cl       : 3.87399	(pressure: 3.8487	viscous: 0.0166408	porous: 0.0086487)
        CmRoll       : -0.0484249	(pressure: -0.0481088	viscous: -0.00020801	porous: -0.000108109)
        CmPitch       : 6.11488	(pressure: 2.901	viscous: 3.18016	porous: 0.0337246)
        CmYaw       : 0.386585	(pressure: 0.171326	viscous: 0.212764	porous: 0.00249568)
        Cd(f)    : 15.415
        Cd(r)    : 15.5118
        Cs(f)    : 0.386585
        Cs(r)    : -0.386585
        Cl(f)    : 8.05188
        Cl(r)    : -4.17788
runTimeControl runTimeControl1 output:
    average: condition1 averages:
        CdMean: 29.6145, delta: 1.31236

    Conditions not met

Time = 3

smoothSolver:  Solving for Ux, Initial residual = 0.119533, Final residual = 0.00378324, No Iterations 2
smoothSolver:  Solving for Uy, Initial residual = 0.164439, Final residual = 0.00877559, No Iterations 2
GAMG:  Solving for p, Initial residual = 0.0422765, Final residual = 0.00257839, No Iterations 4
time step continuity errors : sum local = 0.0971886, global = 0.0101466, cumulative = -0.0127155
smoothSolver:  Solving for epsilon, Initial residual = 0.304928, Final residual = 0.0291219, No Iterations 2
smoothSolver:  Solving for k, Initial residual = 0.197213, Final residual = 0.018492, No Iterations 2
ExecutionTime = 0.16 s  ClockTime = 0 s

forceCoeffs forceCoeffs1 execute:
    Coefficients
        Cd       : 20.5189	(pressure: 8.86405	viscous: 11.4557	porous: 0.199162)
        Cs       : -1.37325e-17	(pressure: -1.04244e-18	viscous: -1.31713e-17	porous: 4.81277e-19)
        Cl       : 5.95234	(pressure: 5.93881	viscous: -0.00366209	porous: 0.0171932)
        CmRoll       : -0.0744043	(pressure: -0.0742352	viscous: 4.57762e-05	porous: -0.000214915)
        CmPitch       : 4.37923	(pressure: 2.12194	viscous: 2.22056	porous: 0.0367357)
        CmYaw       : 0.256486	(pressure: 0.110801	viscous: 0.143196	porous: 0.00248952)
        Cd(f)    : 10.185
        Cd(r)    : 10.3338
        Cs(f)    : 0.256486
        Cs(r)    : -0.256486
        Cl(f)    : 7.3554
        Cl(r)    : -1.40305
runTimeControl runTimeControl1 output:
    average: condition1 averages:
        CdMean: 26.5826, delta: 6.06372

    Conditions not met

Time = 4

smoothSolver:  Solving for Ux, Initial residual = 0.056176, Final residual = 0.00229901, No Iterations 2
smoothSolver:  Solving for Uy, Initial residual = 0.0970459, Final residual = 0.00545692, No Iterations 2
GAMG:  Solving for p, Initial residual = 0.0503425, Final residual = 0.00372948, No Iterations 5
time step continuity errors : sum local = 0.0987278, global = 0.0130035, cumulative = 0.000287929
smoothSolver:  Solving for epsilon, Initial residual = 0.204271, Final residual = 0.0188999, No Iterations 2
smoothSolver:  Solving for k, Initial residual = 0.127093, Final residual = 0.0112098, No Iterations 2
ExecutionTime = 0.18 s  ClockTime = 0 s

forceCoeffs forceCoeffs1 execute:
    Coefficients
        Cd       : 8.66239	(pressure: 0.0570624	viscous: 8.40679	porous: 0.19854)
        Cs       : -1.43147e-18	(pressure: -9.47157e-19	viscous: -5.74937e-19	porous: 9.06281e-20)
        Cl       : 6.03628	(pressure: 6.05978	viscous: -0.0523658	porous: 0.0288622)
        CmRoll       : -0.0754534	(pressure: -0.0757472	viscous: 0.000654572	porous: -0.000360778)
        CmPitch       : 2.20327	(pressure: 0.494407	viscous: 1.66802	porous: 0.0408464)
        CmYaw       : 0.10828	(pressure: 0.000713279	viscous: 0.105085	porous: 0.00248176)
        Cd(f)    : 4.25574
        Cd(r)    : 4.40665
        Cs(f)    : 0.10828
        Cs(r)    : -0.10828
        Cl(f)    : 5.22141
        Cl(r)    : 0.814866
runTimeControl runTimeControl1 output:
    average: condition1 averages:
        CdMean: 22.1025, delta: 13.4402

    Conditions not met

Time = 5

smoothSolver:  Solving for Ux, Initial residual = 0.0357647, Final residual = 0.00175108, No Iterations 2
smoothSolver:  Solving for Uy, Initial residual = 0.105294, Final residual = 0.00604179, No Iterations 2
GAMG:  Solving for p, Initial residual = 0.434912, Final residual = 0.0327486, No Iterations 3
time step continuity errors : sum local = 0.130972, global = 0.0119244, cumulative = 0.0122123
smoothSolver:  Solving for epsilon, Initial residual = 0.147829, Final residual = 0.0133937, No Iterations 2
smoothSolver:  Solving for k, Initial residual = 0.0881553, Final residual = 0.0076361, No Iterations 2
ExecutionTime = 0.19 s  ClockTime = 0 s

forceCoeffs forceCoeffs1 execute:
    Coefficients
        Cd       : 2.85398	(pressure: -3.99177	viscous: 6.64791	porous: 0.197833)
        Cs       : 4.44795e-18	(pressure: -4.34754e-19	viscous: 4.96648e-18	porous: -8.37792e-20)
        Cl       : 4.30984	(pressure: 4.353	viscous: -0.0863705	porous: 0.0432107)
        CmRoll       : -0.053873	(pressure: -0.0544125	viscous: 0.00107963	porous: -0.000540134)
        CmPitch       : 1.11798	(pressure: -0.258671	viscous: 1.33076	porous: 0.0458884)
        CmYaw       : 0.0356747	(pressure: -0.0498971	viscous: 0.0830989	porous: 0.00247291)
        Cd(f)    : 1.37312
        Cd(r)    : 1.48086
        Cs(f)    : 0.0356747
        Cs(r)    : -0.0356747
        Cl(f)    : 3.2729
        Cl(r)    : 1.03694
runTimeControl runTimeControl1 output:
    average: condition1 averages:
        CdMean: 18.2528, delta: 15.3989

    Conditions not met

Time = 6

smoothSolver:  Solving for Ux, Initial residual = 0.0349147, Final residual = 0.00189287, No Iterations 2
smoothSolver:  Solving for Uy, Initial residual = 0.0877327, Final residual = 0.00533714, No Iterations 2
GAMG:  Solving for p, Initial residual = 0.115728, Final residual = 0.00807793, No Iterations 3
time step continuity errors : sum local = 0.0944308, global = -0.0037772, cumulative = 0.00843508
smoothSolver:  Solving for epsilon, Initial residual = 0.112891, Final residual = 0.0101157, No Iterations 2
smoothSolver:  Solving for k, Initial residual = 0.0650325, Final residual = 0.0056083, No Iterations 2
ExecutionTime = 0.2 s  ClockTime = 0 s

forceCoeffs forceCoeffs1 execute:
    Coefficients
        Cd       : 3.3474	(pressure: -2.45014	viscous: 5.60046	porous: 0.197084)
        Cs       : 2.82274e-18	(pressure: -3.10815e-19	viscous: 3.15568e-18	porous: -2.21215e-20)
        Cl       : 2.80998	(pressure: 2.82883	viscous: -0.0772618	porous: 0.0584069)
        CmRoll       : -0.0351247	(pressure: -0.0353604	viscous: 0.000965772	porous: -0.000730086)
        CmPitch       : 1.10717	(pressure: -0.0598384	viscous: 1.1158	porous: 0.0512093)
        CmYaw       : 0.0418425	(pressure: -0.0306268	viscous: 0.0700058	porous: 0.00246355)
        Cd(f)    : 1.63858
        Cd(r)    : 1.70882
        Cs(f)    : 0.0418425
        Cs(r)    : -0.0418425
        Cl(f)    : 2.51216
        Cl(r)    : 0.297821
runTimeControl runTimeControl1 output:
    average: condition1 averages:
        CdMean: 15.7686, delta: 12.4212

    Conditions not met

Time = 7

smoothSolver:  Solving for Ux, Initial residual = 0.031269, Final residual = 0.00175813, No Iterations 2
smoothSolver:  Solving for Uy, Initial residual = 0.098731, Final residual = 0.00609147, No Iterations 2
GAMG:  Solving for p, Initial residual = 0.106502, Final residual = 0.00641467, No Iterations 4
time step continuity errors : sum local = 0.0689516, global = -0.00310037, cumulative = 0.00533471
smoothSolver:  Solving for epsilon, Initial residual = 0.0913987, Final residual = 0.00813493, No Iterations 2
smoothSolver:  Solving for k, Initial residual = 0.0511884, Final residual = 0.00441028, No Iterations 2
ExecutionTime = 0.23 s  ClockTime = 0 s

forceCoeffs forceCoeffs1 execute:
    Coefficients
        Cd       : 7.51622	(pressure: 2.32782	viscous: 4.99208	porous: 0.196329)
        Cs       : -4.1054e-18	(pressure: -4.88224e-19	viscous: -3.82764e-18	porous: 2.10463e-19)
        Cl       : 3.03627	(pressure: 2.99683	viscous: -0.0326862	porous: 0.0721224)
        CmRoll       : -0.0379533	(pressure: -0.0374604	viscous: 0.000408578	porous: -0.00090153)
        CmPitch       : 1.74836	(pressure: 0.704028	viscous: 0.988341	porous: 0.0559865)
        CmYaw       : 0.0939528	(pressure: 0.0290977	viscous: 0.0624009	porous: 0.00245411)
        Cd(f)    : 3.72016
        Cd(r)    : 3.79607
        Cs(f)    : 0.0939528
        Cs(r)    : -0.0939528
        Cl(f)    : 3.26649
        Cl(r)    : -0.230222
runTimeControl runTimeControl1 output:
    average: condition1 averages:
        CdMean: 14.5897, delta: 7.07346

    Conditions not met

Time = 8

smoothSolver:  Solving for Ux, Initial residual = 0.0233397, Final residual = 0.00129506, No Iterations 2
smoothSolver:  Solving for Uy, Initial residual = 0.0822974, Final residual = 0.00496648, No Iterations 2
GAMG:  Solving for p, Initial residual = 0.291111, Final residual = 0.0221377, No Iterations 3
time step continuity errors : sum local = 0.0963227, global = -0.00808886, cumulative = -0.00275415
smoothSolver:  Solving for epsilon, Initial residual = 0.0782872, Final residual = 0.00693944, No Iterations 2
smoothSolver:  Solving for k, Initial residual = 0.0428291, Final residual = 0.00370021, No Iterations 2
ExecutionTime = 0.24 s  ClockTime = 0 s

forceCoeffs forceCoeffs1 execute:
    Coefficients
        Cd       : 10.0299	(pressure: 5.20708	viscous: 4.6272	porous: 0.195588)
        Cs       : -8.85091e-18	(pressure: -1.01068e-18	viscous: -8.19112e-18	porous: 3.50891e-19)
        Cl       : 4.66714	(pressure: 4.56843	viscous: 0.0162906	porous: 0.082422)
        CmRoll       : -0.0583392	(pressure: -0.0571053	viscous: -0.000203633	porous: -0.00103028)
        CmPitch       : 2.07543	(pressure: 1.09501	viscous: 0.920881	porous: 0.05954)
        CmYaw       : 0.125373	(pressure: 0.0650885	viscous: 0.05784	porous: 0.00244485)
        Cd(f)    : 4.9566
        Cd(r)    : 5.07328
        Cs(f)    : 0.125373
        Cs(r)    : -0.125373
        Cl(f)    : 4.409
        Cl(r)    : 0.258136
runTimeControl runTimeControl1 output:
    average: condition1 averages:
        CdMean: 14.0197, delta: 3.98983

    Conditions not met

Time = 9

smoothSolver:  Solving for Ux, Initial residual = 0.0209759, Final residual = 0.00112711, No Iterations 2
smoothSolver:  Solving for Uy, Initial residual = 0.0479119, Final residual = 0.00285514, No Iterations 2
GAMG:  Solving for p, Initial residual = 0.0814472, Final residual = 0.00497875, No Iterations 3
time step continuity errors : sum local = 0.0618222, global = -0.00760785, cumulative = -0.010362
smoothSolver:  Solving for epsilon, Initial residual = 0.0693281, Final residual = 0.00612799, No Iterations 2
smoothSolver:  Solving for k, Initial residual = 0.0372941, Final residual = 0.00322947, No Iterations 2
ExecutionTime = 0.26 s  ClockTime = 0 s

forceCoeffs forceCoeffs1 execute:
    Coefficients
        Cd       : 9.62204	(pressure: 5.08942	viscous: 4.33775	porous: 0.194872)
        Cs       : -9.25522e-18	(pressure: -1.35869e-18	viscous: -8.24565e-18	porous: 3.49121e-19)
        Cl       : 6.22777	(pressure: 6.0979	viscous: 0.0411208	porous: 0.0887452)
        CmRoll       : -0.0778471	(pressure: -0.0762238	viscous: -0.00051401	porous: -0.00110931)
        CmPitch       : 1.97919	(pressure: 1.03938	viscous: 0.878131	porous: 0.0616773)
        CmYaw       : 0.120275	(pressure: 0.0636178	viscous: 0.0542218	porous: 0.00243589)
        Cd(f)    : 4.73317
        Cd(r)    : 4.88887
        Cs(f)    : 0.120275
        Cs(r)    : -0.120275
        Cl(f)    : 5.09308
        Cl(r)    : 1.13469
runTimeControl runTimeControl1 output:
    average: condition1 averages:
        CdMean: 13.5311, delta: 3.90904

    Conditions not met

Time = 10

smoothSolver:  Solving for Ux, Initial residual = 0.018906, Final residual = 0.00100572, No Iterations 2
smoothSolver:  Solving for Uy, Initial residual = 0.0548744, Final residual = 0.00353232, No Iterations 2
GAMG:  Solving for p, Initial residual = 0.0647384, Final residual = 0.00376622, No Iterations 3
time step continuity errors : sum local = 0.050121, global = 0.000417091, cumulative = -0.0099449
smoothSolver:  Solving for epsilon, Initial residual = 0.0622494, Final residual = 0.00548623, No Iterations 2
smoothSolver:  Solving for k, Initial residual = 0.0330745, Final residual = 0.0028654, No Iterations 2
ExecutionTime = 0.27 s  ClockTime = 0 s

forceCoeffs forceCoeffs1 execute:
    Coefficients
        Cd       : 7.41179	(pressure: 3.17433	viscous: 4.04328	porous: 0.194183)
        Cs       : -6.70195e-18	(pressure: -1.22072e-18	viscous: -5.7482e-18	porous: 2.66973e-19)
        Cl       : 6.64404	(pressure: 6.5151	viscous: 0.0371446	porous: 0.0917928)
        CmRoll       : -0.0830505	(pressure: -0.0814388	viscous: -0.000464308	porous: -0.00114741)
        CmPitch       : 1.68535	(pressure: 0.787299	viscous: 0.835399	porous: 0.0626519)
        CmYaw       : 0.0926474	(pressure: 0.0396791	viscous: 0.050541	porous: 0.00242729)
        Cd(f)    : 3.62284
        Cd(r)    : 3.78894
        Cs(f)    : 0.0926474
        Cs(r)    : -0.0926474
        Cl(f)    : 5.00737
        Cl(r)    : 1.63667
runTimeControl runTimeControl1 output:
    average: condition1 averages:
        CdMean: 12.9192, delta: 5.50736

    Conditions not met

Time = 11

smoothSolver:  Solving for Ux, Initial residual = 0.0167695, Final residual = 0.000900516, No Iterations 2
smoothSolver:  Solving for Uy, Initial residual = 0.0433377, Final residual = 0.00276423, No Iterations 2
GAMG:  Solving for p, Initial residual = 0.0860343, Final residual = 0.00594964, No Iterations 3
time step continuity errors : sum local = 0.0577669, global = 0.00432324, cumulative = -0.00562166
smoothSolver:  Solving for epsilon, Initial residual = 0.0560982, Final residual = 0.00492653, No Iterations 2
smoothSolver:  Solving for k, Initial residual = 0.0295178, Final residual = 0.00255219, No Iterations 2
ExecutionTime = 0.29 s  ClockTime = 0 s

forceCoeffs forceCoeffs1 execute:
    Coefficients
        Cd       : 5.04367	(pressure: 1.11883	viscous: 3.73132	porous: 0.193525)
        Cs       : -3.39449e-18	(pressure: -9.39178e-19	viscous: -2.61756e-18	porous: 1.62246e-19)
        Cl       : 5.95436	(pressure: 5.84298	viscous: 0.0187427	porous: 0.0926318)
        CmRoll       : -0.0744294	(pressure: -0.0730373	viscous: -0.000234283	porous: -0.0011579)
        CmPitch       : 1.37588	(pressure: 0.529318	viscous: 0.783715	porous: 0.062844)
        CmYaw       : 0.0630459	(pressure: 0.0139853	viscous: 0.0466415	porous: 0.00241906)
        Cd(f)    : 2.44741
        Cd(r)    : 2.59626
        Cs(f)    : 0.0630459
        Cs(r)    : -0.0630459
        Cl(f)    : 4.35305
        Cl(r)    : 1.6013
runTimeControl runTimeControl1 output:
    average: condition1 averages:
        CdMean: 12.2032, delta: 7.15953

    Conditions not met

Time = 12

smoothSolver:  Solving for Ux, Initial residual = 0.0153618, Final residual = 0.000861893, No Iterations 2
smoothSolver:  Solving for Uy, Initial residual = 0.0275624, Final residual = 0.00173885, No Iterations 2
GAMG:  Solving for p, Initial residual = 0.1768, Final residual = 0.00728582, No Iterations 4
time step continuity errors : sum local = 0.0285272, global = 0.00467141, cumulative = -0.000950257
smoothSolver:  Solving for epsilon, Initial residual = 0.0505832, Final residual = 0.00442398, No Iterations 2
smoothSolver:  Solving for k, Initial residual = 0.0264097, Final residual = 0.00227579, No Iterations 2
ExecutionTime = 0.31 s  ClockTime = 0 s

forceCoeffs forceCoeffs1 execute:
    Coefficients
        Cd       : 3.94982	(pressure: 0.324791	viscous: 3.43213	porous: 0.192897)
        Cs       : -1.70079e-18	(pressure: -7.84151e-19	viscous: -1.0227e-18	porous: 1.0606e-19)
        Cl       : 4.89427	(pressure: 4.79881	viscous: 0.00340298	porous: 0.0920506)
        CmRoll       : -0.0611783	(pressure: -0.0599852	viscous: -4.25373e-05	porous: -0.00115063)
        CmPitch       : 1.21112	(pressure: 0.420124	viscous: 0.728459	porous: 0.0625336)
        CmYaw       : 0.0493727	(pressure: 0.00405989	viscous: 0.0429016	porous: 0.00241121)
        Cd(f)    : 1.91373
        Cd(r)    : 2.03609
        Cs(f)    : 0.0493727
        Cs(r)    : -0.0493727
        Cl(f)    : 3.65825
        Cl(r)    : 1.23602
runTimeControl runTimeControl1 output:
    average: condition1 averages:
        CdMean: 11.5154, delta: 7.5656

    Conditions not met

Time = 13

smoothSolver:  Solving for Ux, Initial residual = 0.0141081, Final residual = 0.000821077, No Iterations 2
smoothSolver:  Solving for Uy, Initial residual = 0.0358396, Final residual = 0.00240803, No Iterations 2
GAMG:  Solving for p, Initial residual = 0.294136, Final residual = 0.0189063, No Iterations 3
time step continuity errors : sum local = 0.0390314, global = 0.00233399, cumulative = 0.00138373
smoothSolver:  Solving for epsilon, Initial residual = 0.0458774, Final residual = 0.00399762, No Iterations 2
smoothSolver:  Solving for k, Initial residual = 0.0238192, Final residual = 0.00204302, No Iterations 2
ExecutionTime = 0.33 s  ClockTime = 0 s

forceCoeffs forceCoeffs1 execute:
    Coefficients
        Cd       : 4.15122	(pressure: 0.776133	viscous: 3.18279	porous: 0.1923)
        Cs       : -2.0713e-18	(pressure: -7.68856e-19	viscous: -1.41407e-18	porous: 1.11625e-19)
        Cl       : 4.14555	(pressure: 4.05493	viscous: 0.000103982	porous: 0.0905188)
        CmRoll       : -0.0518194	(pressure: -0.0506866	viscous: -1.29977e-06	porous: -0.00113149)
        CmPitch       : 1.1797	(pressure: 0.437196	viscous: 0.680621	porous: 0.0618875)
        CmYaw       : 0.0518903	(pressure: 0.00970167	viscous: 0.0397849	porous: 0.00240375)
        Cd(f)    : 2.02379
        Cd(r)    : 2.12743
        Cs(f)    : 0.0518903
        Cs(r)    : -0.0518903
        Cl(f)    : 3.25248
        Cl(r)    : 0.893072
runTimeControl runTimeControl1 output:
    average: condition1 averages:
        CdMean: 10.9489, delta: 6.79772

    Conditions not met

Time = 14

smoothSolver:  Solving for Ux, Initial residual = 0.0127004, Final residual = 0.000741424, No Iterations 2
smoothSolver:  Solving for Uy, Initial residual = 0.0317922, Final residual = 0.00211922, No Iterations 2
GAMG:  Solving for p, Initial residual = 0.299671, Final residual = 0.0156815, No Iterations 3
time step continuity errors : sum local = 0.0299632, global = -0.00191033, cumulative = -0.000526598
smoothSolver:  Solving for epsilon, Initial residual = 0.042116, Final residual = 0.00366026, No Iterations 2
smoothSolver:  Solving for k, Initial residual = 0.0217847, Final residual = 0.00186127, No Iterations 2
ExecutionTime = 0.34 s  ClockTime = 0 s

forceCoeffs forceCoeffs1 execute:
    Coefficients
        Cd       : 5.19416	(pressure: 2.0009	viscous: 3.00152	porous: 0.19173)
        Cs       : -3.87908e-18	(pressure: -8.83456e-19	viscous: -3.16199e-18	porous: 1.66372e-19)
        Cl       : 4.07394	(pressure: 3.97814	viscous: 0.00756541	porous: 0.0882396)
        CmRoll       : -0.0509243	(pressure: -0.0497267	viscous: -9.45676e-05	porous: -0.001103)
        CmPitch       : 1.27126	(pressure: 0.56314	viscous: 0.647144	porous: 0.0609788)
        CmYaw       : 0.064927	(pressure: 0.0250113	viscous: 0.037519	porous: 0.00239662)
        Cd(f)    : 2.54615
        Cd(r)    : 2.648
        Cs(f)    : 0.064927
        Cs(r)    : -0.064927
        Cl(f)    : 3.30823
        Cl(r)    : 0.765707
runTimeControl runTimeControl1 output:
    average: condition1 averages:
        CdMean: 10.5379, delta: 5.34373

    Conditions not met

Time = 15

smoothSolver:  Solving for Ux, Initial residual = 0.0112449, Final residual = 0.000637875, No Iterations 2
smoothSolver:  Solving for Uy, Initial residual = 0.0206526, Final residual = 0.00127604, No Iterations 2
GAMG:  Solving for p, Initial residual = 0.159049, Final residual = 0.0132911, No Iterations 3
time step continuity errors : sum local = 0.0403272, global = -0.00446303, cumulative = -0.00498963
smoothSolver:  Solving for epsilon, Initial residual = 0.0392566, Final residual = 0.00340574, No Iterations 2
smoothSolver:  Solving for k, Initial residual = 0.0202695, Final residual = 0.00172861, No Iterations 2
ExecutionTime = 0.36 s  ClockTime = 0 s

forceCoeffs forceCoeffs1 execute:
    Coefficients
        Cd       : 5.97304	(pressure: 2.90533	viscous: 2.87652	porous: 0.191185)
        Cs       : -5.42887e-18	(pressure: -9.31366e-19	viscous: -4.715e-18	porous: 2.17495e-19)
        Cl       : 4.41236	(pressure: 4.30711	viscous: 0.0198442	porous: 0.0854131)
        CmRoll       : -0.0551545	(pressure: -0.0538388	viscous: -0.000248052	porous: -0.00106766)
        CmPitch       : 1.35847	(pressure: 0.671622	viscous: 0.626966	porous: 0.0598795)
        CmYaw       : 0.074663	(pressure: 0.0363167	viscous: 0.0359565	porous: 0.00238981)
        Cd(f)    : 2.93137
        Cd(r)    : 3.04168
        Cs(f)    : 0.074663
        Cs(r)    : -0.074663
        Cl(f)    : 3.56465
        Cl(r)    : 0.847714
runTimeControl runTimeControl1 output:
    average: condition1 averages:
        CdMean: 10.2336, delta: 4.26052

    Conditions not met

Time = 16

smoothSolver:  Solving for Ux, Initial residual = 0.00976825, Final residual = 0.000531273, No Iterations 2
smoothSolver:  Solving for Uy, Initial residual = 0.0204913, Final residual = 0.00132466, No Iterations 2
GAMG:  Solving for p, Initial residual = 0.0724693, Final residual = 0.00714137, No Iterations 2
time step continuity errors : sum local = 0.0433298, global = -0.00956289, cumulative = -0.0145525
smoothSolver:  Solving for epsilon, Initial residual = 0.0370256, Final residual = 0.00320632, No Iterations 2
smoothSolver:  Solving for k, Initial residual = 0.0191312, Final residual = 0.00162991, No Iterations 2
ExecutionTime = 0.37 s  ClockTime = 0 s

forceCoeffs forceCoeffs1 execute:
    Coefficients
        Cd       : 5.83413	(pressure: 2.87534	viscous: 2.76813	porous: 0.190661)
        Cs       : -5.49622e-18	(pressure: -9.62248e-19	viscous: -4.75157e-18	porous: 2.17594e-19)
        Cl       : 4.75934	(pressure: 4.64783	viscous: 0.0291796	porous: 0.0823273)
        CmRoll       : -0.0594918	(pressure: -0.0580979	viscous: -0.000364745	porous: -0.00102909)
        CmPitch       : 1.33393	(pressure: 0.663895	viscous: 0.611344	porous: 0.0586925)
        CmYaw       : 0.0729266	(pressure: 0.0359417	viscous: 0.0346016	porous: 0.00238327)
        Cd(f)    : 2.85757
        Cd(r)    : 2.97656
        Cs(f)    : 0.0729266
        Cs(r)    : -0.0729266
        Cl(f)    : 3.7136
        Cl(r)    : 1.04574
runTimeControl runTimeControl1 output:
    average: condition1 averages:
        CdMean: 9.9586, delta: 4.12447

    Conditions not met

Time = 17

smoothSolver:  Solving for Ux, Initial residual = 0.0091221, Final residual = 0.000492188, No Iterations 2
smoothSolver:  Solving for Uy, Initial residual = 0.017725, Final residual = 0.0011694, No Iterations 2
GAMG:  Solving for p, Initial residual = 0.0624679, Final residual = 0.00453754, No Iterations 3
time step continuity errors : sum local = 0.0286684, global = 0.000212827, cumulative = -0.0143397
smoothSolver:  Solving for epsilon, Initial residual = 0.0350849, Final residual = 0.00302898, No Iterations 2
smoothSolver:  Solving for k, Initial residual = 0.0181543, Final residual = 0.00154484, No Iterations 2
ExecutionTime = 0.39 s  ClockTime = 0 s

forceCoeffs forceCoeffs1 execute:
    Coefficients
        Cd       : 5.12377	(pressure: 2.28453	viscous: 2.64909	porous: 0.190157)
        Cs       : -4.84571e-18	(pressure: -8.21618e-19	viscous: -4.22533e-18	porous: 2.01246e-19)
        Cl       : 4.92977	(pressure: 4.81844	viscous: 0.0321617	porous: 0.0791646)
        CmRoll       : -0.0616221	(pressure: -0.0602305	viscous: -0.000402021	porous: -0.000989557)
        CmPitch       : 1.23631	(pressure: 0.585695	viscous: 0.59313	porous: 0.0574824)
        CmYaw       : 0.0640472	(pressure: 0.0285566	viscous: 0.0331136	porous: 0.00237696)
        Cd(f)    : 2.50026
        Cd(r)    : 2.62351
        Cs(f)    : 0.0640472
        Cs(r)    : -0.0640472
        Cl(f)    : 3.70119
        Cl(r)    : 1.22858
runTimeControl runTimeControl1 output:
    average: condition1 averages:
        CdMean: 9.6742, delta: 4.55042

    Conditions not met

Time = 18

smoothSolver:  Solving for Ux, Initial residual = 0.00886098, Final residual = 0.000473559, No Iterations 2
smoothSolver:  Solving for Uy, Initial residual = 0.0119978, Final residual = 0.000757666, No Iterations 2
GAMG:  Solving for p, Initial residual = 0.05745, Final residual = 0.00348436, No Iterations 3
time step continuity errors : sum local = 0.0211433, global = 0.00143904, cumulative = -0.0129007
smoothSolver:  Solving for epsilon, Initial residual = 0.0332753, Final residual = 0.00286256, No Iterations 2
smoothSolver:  Solving for k, Initial residual = 0.0172545, Final residual = 0.00146569, No Iterations 2
ExecutionTime = 0.4 s  ClockTime = 0 s

forceCoeffs forceCoeffs1 execute:
    Coefficients
        Cd       : 4.19781	(pressure: 1.49351	viscous: 2.51463	porous: 0.18967)
        Cs       : -3.63423e-18	(pressure: -7.41805e-19	viscous: -3.05181e-18	porous: 1.59381e-19)
        Cl       : 4.75445	(pressure: 4.64804	viscous: 0.0302622	porous: 0.0761433)
        CmRoll       : -0.0594306	(pressure: -0.0581006	viscous: -0.000378278	porous: -0.000951792)
        CmPitch       : 1.08773	(pressure: 0.460899	viscous: 0.570508	porous: 0.0563263)
        CmYaw       : 0.0524726	(pressure: 0.0186689	viscous: 0.0314329	porous: 0.00237087)
        Cd(f)    : 2.03947
        Cd(r)    : 2.15834
        Cs(f)    : 0.0524726
        Cs(r)    : -0.0524726
        Cl(f)    : 3.46496
        Cl(r)    : 1.28949
runTimeControl runTimeControl1 output:
    average: condition1 averages:
        CdMean: 9.36995, delta: 5.17214

    Conditions not met

Time = 19

smoothSolver:  Solving for Ux, Initial residual = 0.00846038, Final residual = 0.000466269, No Iterations 2
smoothSolver:  Solving for Uy, Initial residual = 0.0120903, Final residual = 0.00081989, No Iterations 2
GAMG:  Solving for p, Initial residual = 0.0714775, Final residual = 0.00690594, No Iterations 3
time step continuity errors : sum local = 0.0289851, global = 0.00200203, cumulative = -0.0108986
smoothSolver:  Solving for epsilon, Initial residual = 0.0315467, Final residual = 0.00270175, No Iterations 2
smoothSolver:  Solving for k, Initial residual = 0.016386, Final residual = 0.00138869, No Iterations 2
ExecutionTime = 0.41 s  ClockTime = 0 s

forceCoeffs forceCoeffs1 execute:
    Coefficients
        Cd       : 3.77408	(pressure: 1.20633	viscous: 2.37855	porous: 0.189199)
        Cs       : -2.97645e-18	(pressure: -7.59099e-19	viscous: -2.3496e-18	porous: 1.32247e-19)
        Cl       : 4.4032	(pressure: 4.3031	viscous: 0.0267617	porous: 0.0733366)
        CmRoll       : -0.0550399	(pressure: -0.0537887	viscous: -0.000334522	porous: -0.000916708)
        CmPitch       : 1.00733	(pressure: 0.406	viscous: 0.546084	porous: 0.0552496)
        CmYaw       : 0.0471759	(pressure: 0.0150791	viscous: 0.0297318	porous: 0.00236498)
        Cd(f)    : 1.832
        Cd(r)    : 1.94208
        Cs(f)    : 0.0471759
        Cs(r)    : -0.0471759
        Cl(f)    : 3.20893
        Cl(r)    : 1.19426
runTimeControl runTimeControl1 output:
    average: condition1 averages:
        CdMean: 9.07543, delta: 5.30136

    Conditions not met

Time = 20

smoothSolver:  Solving for Ux, Initial residual = 0.00764319, Final residual = 0.000432135, No Iterations 2
smoothSolver:  Solving for Uy, Initial residual = 0.0134248, Final residual = 0.000945831, No Iterations 2
GAMG:  Solving for p, Initial residual = 0.109214, Final residual = 0.00823601, No Iterations 3
time step continuity errors : sum local = 0.0215893, global = 0.00227593, cumulative = -0.00862269
smoothSolver:  Solving for epsilon, Initial residual = 0.0299718, Final residual = 0.00255574, No Iterations 2
smoothSolver:  Solving for k, Initial residual = 0.0155862, Final residual = 0.00131845, No Iterations 2
ExecutionTime = 0.43 s  ClockTime = 0 s

forceCoeffs forceCoeffs1 execute:
    Coefficients
        Cd       : 3.85803	(pressure: 1.407	viscous: 2.26229	porous: 0.188742)
        Cs       : -3.04275e-18	(pressure: -8.0784e-19	viscous: -2.36423e-18	porous: 1.2932e-19)
        Cl       : 4.09147	(pressure: 3.99482	viscous: 0.0259429	porous: 0.0707038)
        CmRoll       : -0.0511433	(pressure: -0.0499353	viscous: -0.000324286	porous: -0.000883797)
        CmPitch       : 1.00258	(pressure: 0.423527	viscous: 0.524814	porous: 0.0542373)
        CmYaw       : 0.0482254	(pressure: 0.0175875	viscous: 0.0282786	porous: 0.00235927)
        Cd(f)    : 1.87787
        Cd(r)    : 1.98016
        Cs(f)    : 0.0482254
        Cs(r)    : -0.0482254
        Cl(f)    : 3.04831
        Cl(r)    : 1.04316
runTimeControl runTimeControl1 output:
    average: condition1 averages:
        CdMean: 8.81456, delta: 4.95653

    Conditions not met

Time = 21

smoothSolver:  Solving for Ux, Initial residual = 0.00697841, Final residual = 0.000396465, No Iterations 2
smoothSolver:  Solving for Uy, Initial residual = 0.0118514, Final residual = 0.000803996, No Iterations 2
GAMG:  Solving for p, Initial residual = 0.123037, Final residual = 0.00661984, No Iterations 3
time step continuity errors : sum local = 0.0142419, global = -0.000529185, cumulative = -0.00915188
smoothSolver:  Solving for epsilon, Initial residual = 0.0286228, Final residual = 0.00243113, No Iterations 2
smoothSolver:  Solving for k, Initial residual = 0.0148957, Final residual = 0.00125911, No Iterations 2
ExecutionTime = 0.45 s  ClockTime = 0 s

forceCoeffs forceCoeffs1 execute:
    Coefficients
        Cd       : 4.16396	(pressure: 1.8028	viscous: 2.17286	porous: 0.188297)
        Cs       : -3.51858e-18	(pressure: -8.62493e-19	viscous: -2.79834e-18	porous: 1.42255e-19)
        Cl       : 3.97787	(pressure: 3.88044	viscous: 0.0292642	porous: 0.0681673)
        CmRoll       : -0.0497234	(pressure: -0.0485055	viscous: -0.000365802	porous: -0.000852092)
        CmPitch       : 1.03429	(pressure: 0.472156	viscous: 0.508873	porous: 0.0532618)
        CmYaw       : 0.0520495	(pressure: 0.022535	viscous: 0.0271608	porous: 0.00235371)
        Cd(f)    : 2.03226
        Cd(r)    : 2.1317
        Cs(f)    : 0.0520495
        Cs(r)    : -0.0520495
        Cl(f)    : 3.02323
        Cl(r)    : 0.954646
runTimeControl runTimeControl1 output:
    average: condition1 averages:
        CdMean: 7.60766, delta: 3.44369

    Conditions not met

Time = 22

smoothSolver:  Solving for Ux, Initial residual = 0.00664546, Final residual = 0.000371292, No Iterations 2
smoothSolver:  Solving for Uy, Initial residual = 0.010145, Final residual = 0.000668074, No Iterations 2
GAMG:  Solving for p, Initial residual = 0.0865267, Final residual = 0.00617427, No Iterations 3
time step continuity errors : sum local = 0.0157661, global = -0.00187013, cumulative = -0.011022
smoothSolver:  Solving for epsilon, Initial residual = 0.027539, Final residual = 0.00232812, No Iterations 2
smoothSolver:  Solving for k, Initial residual = 0.0143254, Final residual = 0.00121058, No Iterations 2
ExecutionTime = 0.47 s  ClockTime = 0 s

forceCoeffs forceCoeffs1 execute:
    Coefficients
        Cd       : 4.40355	(pressure: 2.11165	viscous: 2.10404	porous: 0.187863)
        Cs       : -4.05768e-18	(pressure: -8.38503e-19	viscous: -3.38102e-18	porous: 1.61852e-19)
        Cl       : 4.01741	(pressure: 3.91666	viscous: 0.0350408	porous: 0.0657128)
        CmRoll       : -0.0502176	(pressure: -0.0489582	viscous: -0.00043801	porous: -0.00082141)
        CmPitch       : 1.0657	(pressure: 0.515984	viscous: 0.497396	porous: 0.0523177)
        CmYaw       : 0.0550443	(pressure: 0.0263956	viscous: 0.0263005	porous: 0.00234829)
        Cd(f)    : 2.15156
        Cd(r)    : 2.25199
        Cs(f)    : 0.0550443
        Cs(r)    : -0.0550443
        Cl(f)    : 3.0744
        Cl(r)    : 0.943008
runTimeControl runTimeControl1 output:
    average: condition1 averages:
        CdMean: 6.28149, delta: 1.87795

    Conditions not met

Time = 23

smoothSolver:  Solving for Ux, Initial residual = 0.00597198, Final residual = 0.000324241, No Iterations 2
smoothSolver:  Solving for Uy, Initial residual = 0.00919096, Final residual = 0.00061973, No Iterations 2
GAMG:  Solving for p, Initial residual = 0.0548612, Final residual = 0.00430965, No Iterations 3
time step continuity errors : sum local = 0.0157417, global = -0.00187126, cumulative = -0.0128933
smoothSolver:  Solving for epsilon, Initial residual = 0.0266205, Final residual = 0.00224115, No Iterations 2
smoothSolver:  Solving for k, Initial residual = 0.0138543, Final residual = 0.00117006, No Iterations 2
ExecutionTime = 0.48 s  ClockTime = 0 s

forceCoeffs forceCoeffs1 execute:
    Coefficients
        Cd       : 4.30016	(pressure: 2.07112	viscous: 2.04161	porous: 0.187439)
        Cs       : -4.14834e-18	(pressure: -7.91935e-19	viscous: -3.52317e-18	porous: 1.66767e-19)
        Cl       : 4.13106	(pressure: 4.02743	viscous: 0.0402238	porous: 0.0634057)
        CmRoll       : -0.0516382	(pressure: -0.0503428	viscous: -0.000502797	porous: -0.000792571)
        CmPitch       : 1.04073	(pressure: 0.501849	viscous: 0.487457	porous: 0.0514282)
        CmYaw       : 0.053752	(pressure: 0.0258889	viscous: 0.0255201	porous: 0.00234299)
        Cd(f)    : 2.09844
        Cd(r)    : 2.20172
        Cs(f)    : 0.053752
        Cs(r)    : -0.053752
        Cl(f)    : 3.10626
        Cl(r)    : 1.02479
runTimeControl runTimeControl1 output:
    average: condition1 averages:
        CdMean: 5.47056, delta: 1.1704

    Conditions not met

Time = 24

smoothSolver:  Solving for Ux, Initial residual = 0.00561073, Final residual = 0.000297885, No Iterations 2
smoothSolver:  Solving for Uy, Initial residual = 0.00703773, Final residual = 0.000475227, No Iterations 2
GAMG:  Solving for p, Initial residual = 0.0469747, Final residual = 0.00333649, No Iterations 3
time step continuity errors : sum local = 0.0141915, global = -0.000684017, cumulative = -0.0135773
smoothSolver:  Solving for epsilon, Initial residual = 0.0257869, Final residual = 0.00216341, No Iterations 2
smoothSolver:  Solving for k, Initial residual = 0.0134338, Final residual = 0.00113404, No Iterations 2
ExecutionTime = 0.49 s  ClockTime = 0 s

forceCoeffs forceCoeffs1 execute:
    Coefficients
        Cd       : 4.05133	(pressure: 1.88825	viscous: 1.97606	porous: 0.187024)
        Cs       : -3.98669e-18	(pressure: -7.51108e-19	viscous: -3.39835e-18	porous: 1.62769e-19)
        Cl       : 4.20648	(pressure: 4.10221	viscous: 0.042942	porous: 0.0613274)
        CmRoll       : -0.052581	(pressure: -0.0512776	viscous: -0.000536776	porous: -0.000766592)
        CmPitch       : 0.996222	(pressure: 0.468904	viscous: 0.476696	porous: 0.050622)
        CmYaw       : 0.0506417	(pressure: 0.0236031	viscous: 0.0247008	porous: 0.00233781)
        Cd(f)    : 1.97309
        Cd(r)    : 2.07825
        Cs(f)    : 0.0506417
        Cs(r)    : -0.0506417
        Cl(f)    : 3.09946
        Cl(r)    : 1.10702
runTimeControl runTimeControl1 output:
    average: condition1 averages:
        CdMean: 5.24, delta: 1.18867

    Conditions not met

Time = 25

smoothSolver:  Solving for Ux, Initial residual = 0.00544384, Final residual = 0.000285527, No Iterations 2
smoothSolver:  Solving for Uy, Initial residual = 0.00627983, Final residual = 0.000422113, No Iterations 2
GAMG:  Solving for p, Initial residual = 0.0396182, Final residual = 0.00338734, No Iterations 2
time step continuity errors : sum local = 0.0146669, global = 0.000681319, cumulative = -0.012896
smoothSolver:  Solving for epsilon, Initial residual = 0.0250244, Final residual = 0.00209271, No Iterations 2
smoothSolver:  Solving for k, Initial residual = 0.0130441, Final residual = 0.0011004, No Iterations 2
ExecutionTime = 0.52 s  ClockTime = 0 s

forceCoeffs forceCoeffs1 execute:
    Coefficients
        Cd       : 3.85575	(pressure: 1.75965	viscous: 1.90948	porous: 0.186617)
        Cs       : -3.79169e-18	(pressure: -7.33526e-19	viscous: -3.21433e-18	porous: 1.5616e-19)
        Cl       : 4.18723	(pressure: 4.08406	viscous: 0.0436384	porous: 0.0595335)
        CmRoll       : -0.0523404	(pressure: -0.0510508	viscous: -0.00054548	porous: -0.000744169)
        CmPitch       : 0.966607	(pressure: 0.451492	viscous: 0.465197	porous: 0.0499186)
        CmYaw       : 0.0481968	(pressure: 0.0219956	viscous: 0.0238685	porous: 0.00233272)
        Cd(f)    : 1.87553
        Cd(r)    : 1.98021
        Cs(f)    : 0.0481968
        Cs(r)    : -0.0481968
        Cl(f)    : 3.06022
        Cl(r)    : 1.12701
runTimeControl runTimeControl1 output:
    average: condition1 averages:
        CdMean: 5.29009, delta: 1.43434

    Conditions not met

Time = 26

smoothSolver:  Solving for Ux, Initial residual = 0.00517434, Final residual = 0.000271116, No Iterations 2
smoothSolver:  Solving for Uy, Initial residual = 0.00723402, Final residual = 0.000505324, No Iterations 2
GAMG:  Solving for p, Initial residual = 0.0350602, Final residual = 0.00265518, No Iterations 3
time step continuity errors : sum local = 0.010713, global = 0.00149643, cumulative = -0.0113995
smoothSolver:  Solving for epsilon, Initial residual = 0.0243182, Final residual = 0.00202882, No Iterations 2
smoothSolver:  Solving for k, Initial residual = 0.0126777, Final residual = 0.00106845, No Iterations 2
ExecutionTime = 0.53 s  ClockTime = 0 s

forceCoeffs forceCoeffs1 execute:
    Coefficients
        Cd       : 3.5847	(pressure: 1.55504	viscous: 1.84344	porous: 0.186217)
        Cs       : -3.35429e-18	(pressure: -7.67121e-19	viscous: -2.72463e-18	porous: 1.37457e-19)
        Cl       : 4.087	(pressure: 3.98539	viscous: 0.0437029	porous: 0.0579107)
        CmRoll       : -0.0510875	(pressure: -0.0498173	viscous: -0.000546286	porous: -0.000723883)
        CmPitch       : 0.909168	(pressure: 0.406649	viscous: 0.453241	porous: 0.0492775)
        CmYaw       : 0.0448087	(pressure: 0.019438	viscous: 0.023043	porous: 0.00232772)
        Cd(f)    : 1.74126
        Cd(r)    : 1.84344
        Cs(f)    : 0.0448087
        Cs(r)    : -0.0448087
        Cl(f)    : 2.95267
        Cl(r)    : 1.13433
runTimeControl runTimeControl1 output:
    average: condition1 averages:
        CdMean: 5.30196, delta: 1.71726

    Conditions not met

Time = 27

smoothSolver:  Solving for Ux, Initial residual = 0.00493214, Final residual = 0.000265175, No Iterations 2
smoothSolver:  Solving for Uy, Initial residual = 0.00739572, Final residual = 0.000522271, No Iterations 2
GAMG:  Solving for p, Initial residual = 0.047284, Final residual = 0.00360408, No Iterations 3
time step continuity errors : sum local = 0.0109103, global = 0.00104953, cumulative = -0.01035
smoothSolver:  Solving for epsilon, Initial residual = 0.0236266, Final residual = 0.00196744, No Iterations 2
smoothSolver:  Solving for k, Initial residual = 0.0123166, Final residual = 0.00103749, No Iterations 2
ExecutionTime = 0.54 s  ClockTime = 0 s

forceCoeffs forceCoeffs1 execute:
    Coefficients
        Cd       : 3.53847	(pressure: 1.57065	viscous: 1.782	porous: 0.185824)
        Cs       : -3.2606e-18	(pressure: -7.81378e-19	viscous: -2.61102e-18	porous: 1.31795e-19)
        Cl       : 3.94763	(pressure: 3.84674	viscous: 0.0445148	porous: 0.0563804)
        CmRoll       : -0.0493454	(pressure: -0.0480842	viscous: -0.000556435	porous: -0.000704756)
        CmPitch       : 0.894719	(pressure: 0.404293	viscous: 0.441755	porous: 0.0486708)
        CmYaw       : 0.0442309	(pressure: 0.0196331	viscous: 0.022275	porous: 0.00232281)
        Cd(f)    : 1.71989
        Cd(r)    : 1.81858
        Cs(f)    : 0.0442309
        Cs(r)    : -0.0442309
        Cl(f)    : 2.86854
        Cl(r)    : 1.0791
runTimeControl runTimeControl1 output:
    average: condition1 averages:
        CdMean: 5.10307, delta: 1.5646

    Conditions not met

Time = 28

smoothSolver:  Solving for Ux, Initial residual = 0.00464098, Final residual = 0.000251491, No Iterations 2
smoothSolver:  Solving for Uy, Initial residual = 0.00664606, Final residual = 0.000470541, No Iterations 2
GAMG:  Solving for p, Initial residual = 0.0506872, Final residual = 0.00437617, No Iterations 2
time step continuity errors : sum local = 0.0114247, global = 0.000801801, cumulative = -0.0095482
smoothSolver:  Solving for epsilon, Initial residual = 0.0229847, Final residual = 0.00191147, No Iterations 2
smoothSolver:  Solving for k, Initial residual = 0.0119802, Final residual = 0.00100899, No Iterations 2
ExecutionTime = 0.55 s  ClockTime = 0 s

forceCoeffs forceCoeffs1 execute:
    Coefficients
        Cd       : 3.52453	(pressure: 1.61018	viscous: 1.72891	porous: 0.185437)
        Cs       : -3.30059e-18	(pressure: -7.84708e-19	viscous: -2.64784e-18	porous: 1.31953e-19)
        Cl       : 3.894	(pressure: 3.79213	viscous: 0.0469237	porous: 0.054942)
        CmRoll       : -0.048675	(pressure: -0.0474016	viscous: -0.000586546	porous: -0.000686775)
        CmPitch       : 0.883964	(pressure: 0.404049	viscous: 0.431817	porous: 0.0480978)
        CmYaw       : 0.0440566	(pressure: 0.0201272	viscous: 0.0216114	porous: 0.00231797)
        Cd(f)    : 1.71359
        Cd(r)    : 1.81094
        Cs(f)    : 0.0440566
        Cs(r)    : -0.0440566
        Cl(f)    : 2.83096
        Cl(r)    : 1.06303
runTimeControl runTimeControl1 output:
    average: condition1 averages:
        CdMean: 4.7778, delta: 1.25327

    Conditions not met

Time = 29

smoothSolver:  Solving for Ux, Initial residual = 0.00444556, Final residual = 0.000240187, No Iterations 2
smoothSolver:  Solving for Uy, Initial residual = 0.00667784, Final residual = 0.000472979, No Iterations 2
GAMG:  Solving for p, Initial residual = 0.0412879, Final residual = 0.00221965, No Iterations 3
time step continuity errors : sum local = 0.00571314, global = -0.000660029, cumulative = -0.0102082
smoothSolver:  Solving for epsilon, Initial residual = 0.0224002, Final residual = 0.00186127, No Iterations 2
smoothSolver:  Solving for k, Initial residual = 0.0116796, Final residual = 0.000983377, No Iterations 2
ExecutionTime = 0.57 s  ClockTime = 0 s

forceCoeffs forceCoeffs1 execute:
    Coefficients
        Cd       : 3.65163	(pressure: 1.78146	viscous: 1.68512	porous: 0.185056)
        Cs       : -3.55303e-18	(pressure: -7.80802e-19	viscous: -2.91286e-18	porous: 1.40633e-19)
        Cl       : 3.82226	(pressure: 3.71854	viscous: 0.050164	porous: 0.053558)
        CmRoll       : -0.0477783	(pressure: -0.0464818	viscous: -0.00062705	porous: -0.000669475)
        CmPitch       : 0.903824	(pressure: 0.432533	viscous: 0.423745	porous: 0.0475455)
        CmYaw       : 0.0456454	(pressure: 0.0222682	viscous: 0.021064	porous: 0.0023132)
        Cd(f)    : 1.77804
        Cd(r)    : 1.87359
        Cs(f)    : 0.0456454
        Cs(r)    : -0.0456454
        Cl(f)    : 2.81496
        Cl(r)    : 1.00731
runTimeControl runTimeControl1 output:
    average: condition1 averages:
        CdMean: 4.47928, delta: 0.827648

    Conditions not met

Time = 30

smoothSolver:  Solving for Ux, Initial residual = 0.00412808, Final residual = 0.000216856, No Iterations 2
smoothSolver:  Solving for Uy, Initial residual = 0.00593914, Final residual = 0.000422162, No Iterations 2
GAMG:  Solving for p, Initial residual = 0.0331608, Final residual = 0.00261045, No Iterations 3
time step continuity errors : sum local = 0.00783381, global = -0.000656861, cumulative = -0.0108651
smoothSolver:  Solving for epsilon, Initial residual = 0.0218719, Final residual = 0.00181726, No Iterations 2
smoothSolver:  Solving for k, Initial residual = 0.0114167, Final residual = 0.000961461, No Iterations 2
ExecutionTime = 0.59 s  ClockTime = 0 s

forceCoeffs forceCoeffs1 execute:
    Coefficients
        Cd       : 3.69216	(pressure: 1.85858	viscous: 1.64891	porous: 0.18468)
        Cs       : -3.71651e-18	(pressure: -7.71515e-19	viscous: -3.09188e-18	porous: 1.46883e-19)
        Cl       : 3.83418	(pressure: 3.72883	viscous: 0.0531041	porous: 0.052255)
        CmRoll       : -0.0479273	(pressure: -0.0466103	viscous: -0.000663801	porous: -0.000653188)
        CmPitch       : 0.907326	(pressure: 0.443052	viscous: 0.417251	porous: 0.047023)
        CmYaw       : 0.0461521	(pressure: 0.0232322	viscous: 0.0206114	porous: 0.0023085)
        Cd(f)    : 1.79816
        Cd(r)    : 1.89401
        Cs(f)    : 0.0461521
        Cs(r)    : -0.0461521
        Cl(f)    : 2.82442
        Cl(r)    : 1.00977
runTimeControl runTimeControl1 output:
    average: condition1 averages:
        CdMean: 4.2933, delta: 0.601134

    Conditions not met

Time = 31

smoothSolver:  Solving for Ux, Initial residual = 0.00386442, Final residual = 0.000196911, No Iterations 2
smoothSolver:  Solving for Uy, Initial residual = 0.00499196, Final residual = 0.000356665, No Iterations 2
GAMG:  Solving for p, Initial residual = 0.0288574, Final residual = 0.00262506, No Iterations 2
time step continuity errors : sum local = 0.0089297, global = -0.00161377, cumulative = -0.0124789
smoothSolver:  Solving for epsilon, Initial residual = 0.0213967, Final residual = 0.00177733, No Iterations 2
smoothSolver:  Solving for k, Initial residual = 0.0111812, Final residual = 0.000942063, No Iterations 2
ExecutionTime = 0.6 s  ClockTime = 0 s

forceCoeffs forceCoeffs1 execute:
    Coefficients
        Cd       : 3.63838	(pressure: 1.83972	viscous: 1.61435	porous: 0.184309)
        Cs       : -3.71416e-18	(pressure: -7.76835e-19	viscous: -3.08407e-18	porous: 1.46744e-19)
        Cl       : 3.88955	(pressure: 3.78334	viscous: 0.0551185	porous: 0.0510933)
        CmRoll       : -0.0486194	(pressure: -0.0472917	viscous: -0.000688981	porous: -0.000638667)
        CmPitch       : 0.895809	(pressure: 0.438146	viscous: 0.411111	porous: 0.0465517)
        CmYaw       : 0.0454797	(pressure: 0.0229964	viscous: 0.0201794	porous: 0.00230386)
        Cd(f)    : 1.77057
        Cd(r)    : 1.86781
        Cs(f)    : 0.0454797
        Cs(r)    : -0.0454797
        Cl(f)    : 2.84058
        Cl(r)    : 1.04897
runTimeControl runTimeControl1 output:
    average: condition1 averages:
        CdMean: 4.22303, delta: 0.584655

    Conditions not met

Time = 32

smoothSolver:  Solving for Ux, Initial residual = 0.00371284, Final residual = 0.000186758, No Iterations 2
smoothSolver:  Solving for Uy, Initial residual = 0.00504642, Final residual = 0.000358357, No Iterations 2
GAMG:  Solving for p, Initial residual = 0.0242787, Final residual = 0.00138266, No Iterations 3
time step continuity errors : sum local = 0.00475217, global = -0.000548482, cumulative = -0.0130273
smoothSolver:  Solving for epsilon, Initial residual = 0.0209484, Final residual = 0.00173977, No Iterations 2
smoothSolver:  Solving for k, Initial residual = 0.0109659, Final residual = 0.00092391, No Iterations 2
ExecutionTime = 0.62 s  ClockTime = 0 s

forceCoeffs forceCoeffs1 execute:
    Coefficients
        Cd       : 3.54168	(pressure: 1.77812	viscous: 1.57962	porous: 0.183942)
        Cs       : -3.65973e-18	(pressure: -7.55465e-19	viscous: -3.05006e-18	porous: 1.45795e-19)
        Cl       : 3.92764	(pressure: 3.82115	viscous: 0.056437	porous: 0.0500499)
        CmRoll       : -0.0490955	(pressure: -0.0477644	viscous: -0.000705463	porous: -0.000625624)
        CmPitch       : 0.875182	(pressure: 0.424294	viscous: 0.404765	porous: 0.0461233)
        CmYaw       : 0.044271	(pressure: 0.0222265	viscous: 0.0197452	porous: 0.00229927)
        Cd(f)    : 1.72174
        Cd(r)    : 1.81993
        Cs(f)    : 0.044271
        Cs(r)    : -0.044271
        Cl(f)    : 2.839
        Cl(r)    : 1.08864
runTimeControl runTimeControl1 output:
    average: condition1 averages:
        CdMean: 4.20263, delta: 0.660949

    Conditions not met

Time = 33

smoothSolver:  Solving for Ux, Initial residual = 0.0036086, Final residual = 0.000179407, No Iterations 2
smoothSolver:  Solving for Uy, Initial residual = 0.00516851, Final residual = 0.00037219, No Iterations 2
GAMG:  Solving for p, Initial residual = 0.0210238, Final residual = 0.00165223, No Iterations 2
time step continuity errors : sum local = 0.00571842, global = 0.000308953, cumulative = -0.0127184
smoothSolver:  Solving for epsilon, Initial residual = 0.0205144, Final residual = 0.00170421, No Iterations 2
smoothSolver:  Solving for k, Initial residual = 0.0107643, Final residual = 0.000906955, No Iterations 2
ExecutionTime = 0.63 s  ClockTime = 0 s

forceCoeffs forceCoeffs1 execute:
    Coefficients
        Cd       : 3.48453	(pressure: 1.75471	viscous: 1.54625	porous: 0.183579)
        Cs       : -3.62122e-18	(pressure: -7.32843e-19	viscous: -3.03306e-18	porous: 1.44687e-19)
        Cl       : 3.90105	(pressure: 3.79429	viscous: 0.0576373	porous: 0.049124)
        CmRoll       : -0.0487632	(pressure: -0.0474286	viscous: -0.000720466	porous: -0.00061405)
        CmPitch       : 0.865382	(pressure: 0.421229	viscous: 0.398416	porous: 0.0457375)
        CmYaw       : 0.0435567	(pressure: 0.0219339	viscous: 0.0193281	porous: 0.00229473)
        Cd(f)    : 1.6935
        Cd(r)    : 1.79103
        Cs(f)    : 0.0435567
        Cs(r)    : -0.0435567
        Cl(f)    : 2.81591
        Cl(r)    : 1.08514
runTimeControl runTimeControl1 output:
    average: condition1 averages:
        CdMean: 4.16929, delta: 0.68476

    Conditions not met

Time = 34

smoothSolver:  Solving for Ux, Initial residual = 0.00344628, Final residual = 0.000169718, No Iterations 2
smoothSolver:  Solving for Uy, Initial residual = 0.00507819, Final residual = 0.000370412, No Iterations 2
GAMG:  Solving for p, Initial residual = 0.0195555, Final residual = 0.00166106, No Iterations 3
time step continuity errors : sum local = 0.00567068, global = 2.94066e-05, cumulative = -0.012689
smoothSolver:  Solving for epsilon, Initial residual = 0.0201013, Final residual = 0.00166978, No Iterations 2
smoothSolver:  Solving for k, Initial residual = 0.0105709, Final residual = 0.000890805, No Iterations 2
ExecutionTime = 0.64 s  ClockTime = 0 s

forceCoeffs forceCoeffs1 execute:
    Coefficients
        Cd       : 3.38287	(pressure: 1.68547	viscous: 1.51418	porous: 0.18322)
        Cs       : -3.4571e-18	(pressure: -7.29672e-19	viscous: -2.86477e-18	porous: 1.37339e-19)
        Cl       : 3.80391	(pressure: 3.6969	viscous: 0.0587697	porous: 0.0482375)
        CmRoll       : -0.0475489	(pressure: -0.0462113	viscous: -0.000734621	porous: -0.000602969)
        CmPitch       : 0.842174	(pressure: 0.404729	viscous: 0.392078	porous: 0.0453665)
        CmYaw       : 0.0422859	(pressure: 0.0210684	viscous: 0.0189273	porous: 0.00229025)
        Cd(f)    : 1.64389
        Cd(r)    : 1.73898
        Cs(f)    : 0.0422859
        Cs(r)    : -0.0422859
        Cl(f)    : 2.74413
        Cl(r)    : 1.05978
runTimeControl runTimeControl1 output:
    average: condition1 averages:
        CdMean: 4.07873, delta: 0.695857

    Conditions not met

Time = 35

smoothSolver:  Solving for Ux, Initial residual = 0.00332335, Final residual = 0.000165162, No Iterations 2
smoothSolver:  Solving for Uy, Initial residual = 0.00495201, Final residual = 0.000361431, No Iterations 2
GAMG:  Solving for p, Initial residual = 0.0207216, Final residual = 0.0015281, No Iterations 3
time step continuity errors : sum local = 0.0046796, global = 0.000209482, cumulative = -0.0124795
smoothSolver:  Solving for epsilon, Initial residual = 0.0196902, Final residual = 0.00163608, No Iterations 2
smoothSolver:  Solving for k, Initial residual = 0.0103843, Final residual = 0.000874829, No Iterations 2
ExecutionTime = 0.66 s  ClockTime = 0 s

forceCoeffs forceCoeffs1 execute:
    Coefficients
        Cd       : 3.35143	(pressure: 1.68467	viscous: 1.4839	porous: 0.182865)
        Cs       : -3.40486e-18	(pressure: -7.4325e-19	viscous: -2.79551e-18	porous: 1.33904e-19)
        Cl       : 3.72748	(pressure: 3.6201	viscous: 0.0600075	porous: 0.0473677)
        CmRoll       : -0.0465935	(pressure: -0.0452513	viscous: -0.000750094	porous: -0.000592097)
        CmPitch       : 0.832004	(pressure: 0.401056	viscous: 0.385946	porous: 0.0450021)
        CmYaw       : 0.0418929	(pressure: 0.0210584	viscous: 0.0185487	porous: 0.00228581)
        Cd(f)    : 1.62912
        Cd(r)    : 1.72231
        Cs(f)    : 0.0418929
        Cs(r)    : -0.0418929
        Cl(f)    : 2.69574
        Cl(r)    : 1.03174
runTimeControl runTimeControl1 output:
    average: condition1 averages:
        CdMean: 3.94765, delta: 0.596215

    Conditions not met

Time = 36

smoothSolver:  Solving for Ux, Initial residual = 0.00320997, Final residual = 0.000160182, No Iterations 2
smoothSolver:  Solving for Uy, Initial residual = 0.00473954, Final residual = 0.000348907, No Iterations 2
GAMG:  Solving for p, Initial residual = 0.0204247, Final residual = 0.00182236, No Iterations 2
time step continuity errors : sum local = 0.00521474, global = 0.000341083, cumulative = -0.0121384
smoothSolver:  Solving for epsilon, Initial residual = 0.0192925, Final residual = 0.00160349, No Iterations 2
smoothSolver:  Solving for k, Initial residual = 0.0102052, Final residual = 0.000859699, No Iterations 2
ExecutionTime = 0.67 s  ClockTime = 0 s

forceCoeffs forceCoeffs1 execute:
    Coefficients
        Cd       : 3.33591	(pressure: 1.69691	viscous: 1.45648	porous: 0.182513)
        Cs       : -3.42347e-18	(pressure: -7.59108e-19	viscous: -2.79811e-18	porous: 1.3375e-19)
        Cl       : 3.72656	(pressure: 3.61832	viscous: 0.0616938	porous: 0.0465421)
        CmRoll       : -0.0465819	(pressure: -0.045229	viscous: -0.000771172	porous: -0.000581776)
        CmPitch       : 0.824711	(pressure: 0.399638	viscous: 0.380419	porous: 0.044654)
        CmYaw       : 0.0416988	(pressure: 0.0212114	viscous: 0.018206	porous: 0.00228141)
        Cd(f)    : 1.62137
        Cd(r)    : 1.71454
        Cs(f)    : 0.0416988
        Cs(r)    : -0.0416988
        Cl(f)    : 2.68799
        Cl(r)    : 1.03857
runTimeControl runTimeControl1 output:
    average: condition1 averages:
        CdMean: 3.82274, delta: 0.486829

    Conditions not met

Time = 37

smoothSolver:  Solving for Ux, Initial residual = 0.00309962, Final residual = 0.000153664, No Iterations 2
smoothSolver:  Solving for Uy, Initial residual = 0.00457906, Final residual = 0.000338722, No Iterations 2
GAMG:  Solving for p, Initial residual = 0.0177876, Final residual = 0.00157394, No Iterations 2
time step continuity errors : sum local = 0.00446244, global = -0.000345381, cumulative = -0.0124838
smoothSolver:  Solving for epsilon, Initial residual = 0.0189154, Final residual = 0.00157254, No Iterations 2
smoothSolver:  Solving for k, Initial residual = 0.0100367, Final residual = 0.000845485, No Iterations 2
ExecutionTime = 0.69 s  ClockTime = 0 s

forceCoeffs forceCoeffs1 execute:
    Coefficients
        Cd       : 3.3334	(pressure: 1.71955	viscous: 1.43169	porous: 0.182164)
        Cs       : -3.45613e-18	(pressure: -7.75777e-19	viscous: -2.81476e-18	porous: 1.344e-19)
        Cl       : 3.7415	(pressure: 3.63208	viscous: 0.0636514	porous: 0.0457693)
        CmRoll       : -0.0467687	(pressure: -0.0454009	viscous: -0.000795642	porous: -0.000572116)
        CmPitch       : 0.821546	(pressure: 0.401753	viscous: 0.375468	porous: 0.0443254)
        CmYaw       : 0.0416675	(pressure: 0.0214944	viscous: 0.0178961	porous: 0.00227705)
        Cd(f)    : 1.61993
        Cd(r)    : 1.71347
        Cs(f)    : 0.0416675
        Cs(r)    : -0.0416675
        Cl(f)    : 2.69229
        Cl(r)    : 1.0492
runTimeControl runTimeControl1 output:
    average: condition1 averages:
        CdMean: 3.73322, delta: 0.399815

    Conditions not met

Time = 38

smoothSolver:  Solving for Ux, Initial residual = 0.0029779, Final residual = 0.000145979, No Iterations 2
smoothSolver:  Solving for Uy, Initial residual = 0.00432683, Final residual = 0.000321958, No Iterations 2
GAMG:  Solving for p, Initial residual = 0.0162439, Final residual = 0.000934039, No Iterations 3
time step continuity errors : sum local = 0.00266378, global = -0.000213106, cumulative = -0.0126969
smoothSolver:  Solving for epsilon, Initial residual = 0.0185596, Final residual = 0.00154359, No Iterations 2
smoothSolver:  Solving for k, Initial residual = 0.00988078, Final residual = 0.000832297, No Iterations 2
ExecutionTime = 0.71 s  ClockTime = 1 s

forceCoeffs forceCoeffs1 execute:
    Coefficients
        Cd       : 3.39352	(pressure: 1.80074	viscous: 1.41096	porous: 0.181819)
        Cs       : -3.59035e-18	(pressure: -7.62463e-19	viscous: -2.9678e-18	porous: 1.39919e-19)
        Cl       : 3.72795	(pressure: 3.61746	viscous: 0.0654544	porous: 0.045035)
        CmRoll       : -0.0465993	(pressure: -0.0452182	viscous: -0.000818179	porous: -0.000562937)
        CmPitch       : 0.833145	(pressure: 0.417853	viscous: 0.371281	porous: 0.044011)
        CmYaw       : 0.042419	(pressure: 0.0225093	viscous: 0.017637	porous: 0.00227273)
        Cd(f)    : 1.65016
        Cd(r)    : 1.74336
        Cs(f)    : 0.042419
        Cs(r)    : -0.042419
        Cl(f)    : 2.69712
        Cl(r)    : 1.03083
runTimeControl runTimeControl1 output:
    average: condition1 averages:
        CdMean: 3.693, delta: 0.299483

    Conditions not met

Time = 39

smoothSolver:  Solving for Ux, Initial residual = 0.00279798, Final residual = 0.000132417, No Iterations 2
smoothSolver:  Solving for Uy, Initial residual = 0.00418535, Final residual = 0.000311515, No Iterations 2
GAMG:  Solving for p, Initial residual = 0.0139042, Final residual = 0.00130574, No Iterations 2
time step continuity errors : sum local = 0.00408224, global = -0.000496144, cumulative = -0.0131931
smoothSolver:  Solving for epsilon, Initial residual = 0.0182338, Final residual = 0.00151715, No Iterations 2
smoothSolver:  Solving for k, Initial residual = 0.00973987, Final residual = 0.000820472, No Iterations 2
ExecutionTime = 0.72 s  ClockTime = 1 s

forceCoeffs forceCoeffs1 execute:
    Coefficients
        Cd       : 3.3835	(pressure: 1.80893	viscous: 1.39309	porous: 0.181476)
        Cs       : -3.60716e-18	(pressure: -7.51654e-19	viscous: -2.9962e-18	porous: 1.4069e-19)
        Cl       : 3.72805	(pressure: 3.61683	viscous: 0.0668456	porous: 0.0443715)
        CmRoll       : -0.0466006	(pressure: -0.0452104	viscous: -0.00083557	porous: -0.000554644)
        CmPitch       : 0.830588	(pressure: 0.419268	viscous: 0.367598	porous: 0.0437223)
        CmYaw       : 0.0422937	(pressure: 0.0226116	viscous: 0.0174136	porous: 0.00226845)
        Cd(f)    : 1.64515
        Cd(r)    : 1.73835
        Cs(f)    : 0.0422937
        Cs(r)    : -0.0422937
        Cl(f)    : 2.69461
        Cl(r)    : 1.03343
runTimeControl runTimeControl1 output:
    average: condition1 averages:
        CdMean: 3.67347, delta: 0.289978

    Conditions not met

Time = 40

smoothSolver:  Solving for Ux, Initial residual = 0.00269424, Final residual = 0.000125273, No Iterations 2
smoothSolver:  Solving for Uy, Initial residual = 0.00412831, Final residual = 0.000305971, No Iterations 2
GAMG:  Solving for p, Initial residual = 0.0121811, Final residual = 0.000978082, No Iterations 2
time step continuity errors : sum local = 0.00311479, global = -0.000256224, cumulative = -0.0134493
smoothSolver:  Solving for epsilon, Initial residual = 0.0179241, Final residual = 0.00149181, No Iterations 2
smoothSolver:  Solving for k, Initial residual = 0.0096071, Final residual = 0.000809268, No Iterations 2
ExecutionTime = 0.73 s  ClockTime = 1 s

forceCoeffs forceCoeffs1 execute:
    Coefficients
        Cd       : 3.3612	(pressure: 1.80442	viscous: 1.37564	porous: 0.181136)
        Cs       : -3.60232e-18	(pressure: -7.38318e-19	viscous: -3.00456e-18	porous: 1.40555e-19)
        Cl       : 3.71509	(pressure: 3.60353	viscous: 0.0677799	porous: 0.0437794)
        CmRoll       : -0.0464386	(pressure: -0.0450442	viscous: -0.000847249	porous: -0.000547242)
        CmPitch       : 0.825278	(pressure: 0.417892	viscous: 0.363926	porous: 0.0434595)
        CmYaw       : 0.0420149	(pressure: 0.0225552	viscous: 0.0171955	porous: 0.0022642)
        Cd(f)    : 1.63416
        Cd(r)    : 1.72704
        Cs(f)    : 0.0420149
        Cs(r)    : -0.0420149
        Cl(f)    : 2.68282
        Cl(r)    : 1.03227
runTimeControl runTimeControl1 output:
    average: condition1 averages:
        CdMean: 3.64863, delta: 0.287437

    Conditions not met

Time = 41

smoothSolver:  Solving for Ux, Initial residual = 0.00259575, Final residual = 0.000118948, No Iterations 2
smoothSolver:  Solving for Uy, Initial residual = 0.0040365, Final residual = 0.000300053, No Iterations 2
GAMG:  Solving for p, Initial residual = 0.0110369, Final residual = 0.000867218, No Iterations 2
time step continuity errors : sum local = 0.00276658, global = 6.6853e-05, cumulative = -0.0133824
smoothSolver:  Solving for epsilon, Initial residual = 0.0176248, Final residual = 0.00146725, No Iterations 2
smoothSolver:  Solving for k, Initial residual = 0.00948007, Final residual = 0.000798545, No Iterations 2
ExecutionTime = 0.74 s  ClockTime = 1 s

forceCoeffs forceCoeffs1 execute:
    Coefficients
        Cd       : 3.33902	(pressure: 1.79938	viscous: 1.35884	porous: 0.180798)
        Cs       : -3.5961e-18	(pressure: -7.29729e-19	viscous: -3.00654e-18	porous: 1.4017e-19)
        Cl       : 3.69269	(pressure: 3.58087	viscous: 0.0685844	porous: 0.0432337)
        CmRoll       : -0.0461587	(pressure: -0.0447609	viscous: -0.000857305	porous: -0.000540422)
        CmPitch       : 0.818998	(pressure: 0.415463	viscous: 0.360321	porous: 0.0432136)
        CmYaw       : 0.0417377	(pressure: 0.0224923	viscous: 0.0169854	porous: 0.00225998)
        Cd(f)    : 1.62335
        Cd(r)    : 1.71567
        Cs(f)    : 0.0417377
        Cs(r)    : -0.0417377
        Cl(f)    : 2.66534
        Cl(r)    : 1.02735
runTimeControl runTimeControl1 output:
    average: condition1 averages:
        CdMean: 3.60739, delta: 0.268367

    Conditions not met

Time = 42

smoothSolver:  Solving for Ux, Initial residual = 0.00249913, Final residual = 0.000112966, No Iterations 2
smoothSolver:  Solving for Uy, Initial residual = 0.00390505, Final residual = 0.000292831, No Iterations 2
GAMG:  Solving for p, Initial residual = 0.0104402, Final residual = 0.000857172, No Iterations 2
time step continuity errors : sum local = 0.00272219, global = 0.000459605, cumulative = -0.0129228
smoothSolver:  Solving for epsilon, Initial residual = 0.0173355, Final residual = 0.00144351, No Iterations 2
smoothSolver:  Solving for k, Initial residual = 0.00935746, Final residual = 0.000788186, No Iterations 2
ExecutionTime = 0.75 s  ClockTime = 1 s

forceCoeffs forceCoeffs1 execute:
    Coefficients
        Cd       : 3.3206	(pressure: 1.79709	viscous: 1.34304	porous: 0.180463)
        Cs       : -3.59077e-18	(pressure: -7.25205e-19	viscous: -3.00522e-18	porous: 1.39647e-19)
        Cl       : 3.66194	(pressure: 3.54974	viscous: 0.0694894	porous: 0.0427052)
        CmRoll       : -0.0457742	(pressure: -0.0443718	viscous: -0.000868618	porous: -0.000533815)
        CmPitch       : 0.812797	(pressure: 0.412951	viscous: 0.356872	porous: 0.0429743)
        CmYaw       : 0.0415075	(pressure: 0.0224637	viscous: 0.016788	porous: 0.00225579)
        Cd(f)    : 1.61453
        Cd(r)    : 1.70607
        Cs(f)    : 0.0415075
        Cs(r)    : -0.0415075
        Cl(f)    : 2.64377
        Cl(r)    : 1.01817
runTimeControl runTimeControl1 output:
    average: condition1 averages:
        CdMean: 3.55324, delta: 0.232638

    Conditions not met

Time = 43

smoothSolver:  Solving for Ux, Initial residual = 0.00240797, Final residual = 0.000107477, No Iterations 2
smoothSolver:  Solving for Uy, Initial residual = 0.00385289, Final residual = 0.0002909, No Iterations 2
GAMG:  Solving for p, Initial residual = 0.00981115, Final residual = 0.000792784, No Iterations 3
time step continuity errors : sum local = 0.00250087, global = -6.621e-05, cumulative = -0.012989
smoothSolver:  Solving for epsilon, Initial residual = 0.0170518, Final residual = 0.0014201, No Iterations 2
smoothSolver:  Solving for k, Initial residual = 0.00923819, Final residual = 0.000778061, No Iterations 2
ExecutionTime = 0.78 s  ClockTime = 1 s

forceCoeffs forceCoeffs1 execute:
    Coefficients
        Cd       : 3.27085	(pressure: 1.76302	viscous: 1.3277	porous: 0.18013)
        Cs       : -3.50591e-18	(pressure: -7.32484e-19	viscous: -2.90907e-18	porous: 1.35645e-19)
        Cl       : 3.60778	(pressure: 3.49524	viscous: 0.0703806	porous: 0.0421643)
        CmRoll       : -0.0450973	(pressure: -0.0436905	viscous: -0.000879758	porous: -0.000527054)
        CmPitch       : 0.800276	(pressure: 0.404065	viscous: 0.35348	porous: 0.042731)
        CmYaw       : 0.0408856	(pressure: 0.0220377	viscous: 0.0165962	porous: 0.00225163)
        Cd(f)    : 1.59033
        Cd(r)    : 1.68052
        Cs(f)    : 0.0408856
        Cs(r)    : -0.0408856
        Cl(f)    : 2.60417
        Cl(r)    : 1.00362
runTimeControl runTimeControl1 output:
    average: condition1 averages:
        CdMean: 3.50177, delta: 0.230926

    Conditions not met

Time = 44

smoothSolver:  Solving for Ux, Initial residual = 0.00236701, Final residual = 0.000106361, No Iterations 2
smoothSolver:  Solving for Uy, Initial residual = 0.00375929, Final residual = 0.000284514, No Iterations 2
GAMG:  Solving for p, Initial residual = 0.00989041, Final residual = 0.000837359, No Iterations 2
time step continuity errors : sum local = 0.00249297, global = 0.000280058, cumulative = -0.012709
smoothSolver:  Solving for epsilon, Initial residual = 0.0167706, Final residual = 0.00139667, No Iterations 2
smoothSolver:  Solving for k, Initial residual = 0.0091199, Final residual = 0.000768027, No Iterations 2
ExecutionTime = 0.79 s  ClockTime = 1 s

forceCoeffs forceCoeffs1 execute:
    Coefficients
        Cd       : 3.2586	(pressure: 1.7659	viscous: 1.3129	porous: 0.1798)
        Cs       : -3.50388e-18	(pressure: -7.39612e-19	viscous: -2.89941e-18	porous: 1.35138e-19)
        Cl       : 3.60041	(pressure: 3.48747	viscous: 0.0712943	porous: 0.0416464)
        CmRoll       : -0.0450051	(pressure: -0.0435933	viscous: -0.000891179	porous: -0.00052058)
        CmPitch       : 0.796151	(pressure: 0.403474	viscous: 0.350181	porous: 0.0424963)
        CmYaw       : 0.0407325	(pressure: 0.0220738	viscous: 0.0164112	porous: 0.0022475)
        Cd(f)    : 1.5843
        Cd(r)    : 1.67431
        Cs(f)    : 0.0407325
        Cs(r)    : -0.0407325
        Cl(f)    : 2.59635
        Cl(r)    : 1.00405
runTimeControl runTimeControl1 output:
    average: condition1 averages:
        CdMean: 3.46214, delta: 0.203536

    Conditions not met

Time = 45

smoothSolver:  Solving for Ux, Initial residual = 0.00229815, Final residual = 0.000102434, No Iterations 2
smoothSolver:  Solving for Uy, Initial residual = 0.00366653, Final residual = 0.000278032, No Iterations 2
GAMG:  Solving for p, Initial residual = 0.00915194, Final residual = 0.000825826, No Iterations 2
time step continuity errors : sum local = 0.00243331, global = 2.17306e-05, cumulative = -0.0126872
smoothSolver:  Solving for epsilon, Initial residual = 0.0164968, Final residual = 0.00137407, No Iterations 2
smoothSolver:  Solving for k, Initial residual = 0.0090057, Final residual = 0.000758351, No Iterations 2
ExecutionTime = 0.8 s  ClockTime = 1 s

forceCoeffs forceCoeffs1 execute:
    Coefficients
        Cd       : 3.24842	(pressure: 1.76972	viscous: 1.29923	porous: 0.179471)
        Cs       : -3.50459e-18	(pressure: -7.45296e-19	viscous: -2.89418e-18	porous: 1.34889e-19)
        Cl       : 3.60501	(pressure: 3.49148	viscous: 0.0723542	porous: 0.0411727)
        CmRoll       : -0.0450626	(pressure: -0.0436435	viscous: -0.000904427	porous: -0.000514658)
        CmPitch       : 0.793223	(pressure: 0.403823	viscous: 0.347123	porous: 0.0422777)
        CmYaw       : 0.0406053	(pressure: 0.0221215	viscous: 0.0162404	porous: 0.00224339)
        Cd(f)    : 1.57915
        Cd(r)    : 1.66927
        Cs(f)    : 0.0406053
        Cs(r)    : -0.0406053
        Cl(f)    : 2.59573
        Cl(r)    : 1.00928
runTimeControl runTimeControl1 output:
    average: condition1 averages:
        CdMean: 3.43177, delta: 0.18335

    Conditions not met

Time = 46

smoothSolver:  Solving for Ux, Initial residual = 0.00223208, Final residual = 9.85198e-05, No Iterations 2
smoothSolver:  Solving for Uy, Initial residual = 0.00356971, Final residual = 0.000271031, No Iterations 2
GAMG:  Solving for p, Initial residual = 0.00849082, Final residual = 0.000802829, No Iterations 2
time step continuity errors : sum local = 0.00235014, global = -0.000181862, cumulative = -0.0128691
smoothSolver:  Solving for epsilon, Initial residual = 0.0162312, Final residual = 0.00135203, No Iterations 2
smoothSolver:  Solving for k, Initial residual = 0.00889571, Final residual = 0.000749025, No Iterations 2
ExecutionTime = 0.81 s  ClockTime = 1 s

forceCoeffs forceCoeffs1 execute:
    Coefficients
        Cd       : 3.24447	(pressure: 1.77858	viscous: 1.28674	porous: 0.179144)
        Cs       : -3.5122e-18	(pressure: -7.48095e-19	viscous: -2.89914e-18	porous: 1.35039e-19)
        Cl       : 3.60935	(pressure: 3.4952	viscous: 0.0734115	porous: 0.0407415)
        CmRoll       : -0.0451169	(pressure: -0.0436899	viscous: -0.000917644	porous: -0.000509269)
        CmPitch       : 0.79178	(pressure: 0.40542	viscous: 0.344286	porous: 0.0420745)
        CmYaw       : 0.0405558	(pressure: 0.0222323	viscous: 0.0160842	porous: 0.00223931)
        Cd(f)    : 1.57712
        Cd(r)    : 1.66735
        Cs(f)    : 0.0405558
        Cs(r)    : -0.0405558
        Cl(f)    : 2.59645
        Cl(r)    : 1.01289
runTimeControl runTimeControl1 output:
    average: condition1 averages:
        CdMean: 3.41476, delta: 0.170293

    Conditions not met

Time = 47

smoothSolver:  Solving for Ux, Initial residual = 0.00216505, Final residual = 9.427e-05, No Iterations 2
smoothSolver:  Solving for Uy, Initial residual = 0.00348183, Final residual = 0.000264898, No Iterations 2
GAMG:  Solving for p, Initial residual = 0.00792019, Final residual = 0.000743982, No Iterations 2
time step continuity errors : sum local = 0.00217726, global = -0.000141093, cumulative = -0.0130102
smoothSolver:  Solving for epsilon, Initial residual = 0.015976, Final residual = 0.00133082, No Iterations 2
smoothSolver:  Solving for k, Initial residual = 0.0087904, Final residual = 0.000740108, No Iterations 2
ExecutionTime = 0.82 s  ClockTime = 1 s

forceCoeffs forceCoeffs1 execute:
    Coefficients
        Cd       : 3.27349	(pressure: 1.81846	viscous: 1.27621	porous: 0.17882)
        Cs       : -3.57248e-18	(pressure: -7.39414e-19	viscous: -2.9705e-18	porous: 1.37427e-19)
        Cl       : 3.59175	(pressure: 3.47705	viscous: 0.074356	porous: 0.0403365)
        CmRoll       : -0.0448968	(pressure: -0.0434632	viscous: -0.00092945	porous: -0.000504207)
        CmPitch       : 0.796886	(pressure: 0.41321	viscous: 0.341795	porous: 0.041881)
        CmYaw       : 0.0409186	(pressure: 0.0227307	viscous: 0.0159526	porous: 0.00223525)
        Cd(f)    : 1.59185
        Cd(r)    : 1.68164
        Cs(f)    : 0.0409186
        Cs(r)    : -0.0409186
        Cl(f)    : 2.59276
        Cl(r)    : 0.998987
runTimeControl runTimeControl1 output:
    average: condition1 averages:
        CdMean: 3.40151, delta: 0.128022

    Conditions not met

Time = 48

smoothSolver:  Solving for Ux, Initial residual = 0.00207942, Final residual = 8.80445e-05, No Iterations 2
smoothSolver:  Solving for Uy, Initial residual = 0.00341472, Final residual = 0.000260001, No Iterations 2
GAMG:  Solving for p, Initial residual = 0.00734146, Final residual = 0.000722073, No Iterations 2
time step continuity errors : sum local = 0.00218829, global = -0.000134853, cumulative = -0.013145
smoothSolver:  Solving for epsilon, Initial residual = 0.0157325, Final residual = 0.00131074, No Iterations 2
smoothSolver:  Solving for k, Initial residual = 0.00869064, Final residual = 0.000731683, No Iterations 2
ExecutionTime = 0.84 s  ClockTime = 1 s

forceCoeffs forceCoeffs1 execute:
    Coefficients
        Cd       : 3.27846	(pressure: 1.83269	viscous: 1.26728	porous: 0.178497)
        Cs       : -3.59617e-18	(pressure: -7.26325e-19	viscous: -3.00814e-18	porous: 1.38303e-19)
        Cl       : 3.56503	(pressure: 3.44999	viscous: 0.0750826	porous: 0.0399542)
        CmRoll       : -0.0445628	(pressure: -0.0431249	viscous: -0.000938532	porous: -0.000499427)
        CmPitch       : 0.79667	(pressure: 0.415373	viscous: 0.339602	porous: 0.0416959)
        CmYaw       : 0.0409808	(pressure: 0.0229086	viscous: 0.015841	porous: 0.00223121)
        Cd(f)    : 1.59467
        Cd(r)    : 1.68379
        Cs(f)    : 0.0409808
        Cs(r)    : -0.0409808
        Cl(f)    : 2.57918
        Cl(r)    : 0.985843
runTimeControl runTimeControl1 output:
    average: condition1 averages:
        CdMean: 3.38921, delta: 0.110743

    Conditions not met

Time = 49

smoothSolver:  Solving for Ux, Initial residual = 0.00201157, Final residual = 8.36204e-05, No Iterations 2
smoothSolver:  Solving for Uy, Initial residual = 0.00327978, Final residual = 0.000249216, No Iterations 2
GAMG:  Solving for p, Initial residual = 0.00690725, Final residual = 0.000557499, No Iterations 2
time step continuity errors : sum local = 0.00171834, global = -7.90754e-05, cumulative = -0.0132241
smoothSolver:  Solving for epsilon, Initial residual = 0.0154963, Final residual = 0.00129127, No Iterations 2
smoothSolver:  Solving for k, Initial residual = 0.00859411, Final residual = 0.000723552, No Iterations 2
ExecutionTime = 0.85 s  ClockTime = 1 s

forceCoeffs forceCoeffs1 execute:
    Coefficients
        Cd       : 3.27111	(pressure: 1.83423	viscous: 1.25871	porous: 0.178176)
        Cs       : -3.6007e-18	(pressure: -7.23073e-19	viscous: -3.01592e-18	porous: 1.3829e-19)
        Cl       : 3.55185	(pressure: 3.43664	viscous: 0.0756195	porous: 0.0395985)
        CmRoll       : -0.0443982	(pressure: -0.042958	viscous: -0.000945244	porous: -0.000494982)
        CmPitch       : 0.793469	(pressure: 0.414454	viscous: 0.337494	porous: 0.0415205)
        CmYaw       : 0.0408889	(pressure: 0.0229279	viscous: 0.0157338	porous: 0.00222719)
        Cd(f)    : 1.59116
        Cd(r)    : 1.67996
        Cs(f)    : 0.0408889
        Cs(r)    : -0.0408889
        Cl(f)    : 2.5694
        Cl(r)    : 0.982458
runTimeControl runTimeControl1 output:
    average: condition1 averages:
        CdMean: 3.37018, delta: 0.0990655

    Conditions not met

Time = 50

smoothSolver:  Solving for Ux, Initial residual = 0.00195566, Final residual = 8.02704e-05, No Iterations 2
[...]
smoothSolver:  Solving for k, Initial residual = 0.00201817, Final residual = 0.000170133, No Iterations 2
ExecutionTime = 2.95 s  ClockTime = 3 s

forceCoeffs forceCoeffs1 execute:
    Coefficients
        Cd       : 3.14794	(pressure: 1.88128	viscous: 1.1321	porous: 0.134561)
        Cs       : -3.62027e-18	(pressure: -6.71187e-19	viscous: -3.08728e-18	porous: 1.3819e-19)
        Cl       : 3.22526	(pressure: 3.12549	viscous: 0.0645455	porous: 0.0352281)
        CmRoll       : -0.0403158	(pressure: -0.0390686	viscous: -0.000806819	porous: -0.000440351)
        CmPitch       : 0.755419	(pressure: 0.421557	viscous: 0.300438	porous: 0.0334239)
        CmYaw       : 0.0393492	(pressure: 0.023516	viscous: 0.0141512	porous: 0.00168201)
        Cd(f)    : 1.53365
        Cd(r)    : 1.61428
        Cs(f)    : 0.0393492
        Cs(r)    : -0.0393492
        Cl(f)    : 2.36805
        Cl(r)    : 0.857211
fieldAverage fieldAverage1 write:
    Calculating averages

runTimeControl runTimeControl2 output:
    maxDuration: condition1
        Completed 89 out of 100
    Conditions not met

Time = 198

smoothSolver:  Solving for Ux, Initial residual = 0.00075272, Final residual = 5.91525e-05, No Iterations 1
smoothSolver:  Solving for Uy, Initial residual = 0.000503193, Final residual = 4.02936e-05, No Iterations 2
GAMG:  Solving for p, Initial residual = 0.000908641, Final residual = 6.44664e-05, No Iterations 2
time step continuity errors : sum local = 0.000109317, global = -1.00216e-05, cumulative = -0.0146761
smoothSolver:  Solving for epsilon, Initial residual = 0.0022494, Final residual = 0.000188268, No Iterations 2
smoothSolver:  Solving for k, Initial residual = 0.00200429, Final residual = 0.00016895, No Iterations 2
ExecutionTime = 2.96 s  ClockTime = 3 s

forceCoeffs forceCoeffs1 execute:
    Coefficients
        Cd       : 3.14719	(pressure: 1.88097	viscous: 1.13195	porous: 0.134275)
        Cs       : -3.61915e-18	(pressure: -6.70456e-19	viscous: -3.08686e-18	porous: 1.38163e-19)
        Cl       : 3.22315	(pressure: 3.12367	viscous: 0.0642628	porous: 0.0352112)
        CmRoll       : -0.0402893	(pressure: -0.0390459	viscous: -0.000803285	porous: -0.00044014)
        CmPitch       : 0.755239	(pressure: 0.421459	viscous: 0.300405	porous: 0.0333749)
        CmYaw       : 0.0393399	(pressure: 0.0235122	viscous: 0.0141493	porous: 0.00167843)
        Cd(f)    : 1.53331
        Cd(r)    : 1.61389
        Cs(f)    : 0.0393399
        Cs(r)    : -0.0393399
        Cl(f)    : 2.36681
        Cl(r)    : 0.856334
fieldAverage fieldAverage1 write:
    Calculating averages

runTimeControl runTimeControl2 output:
    maxDuration: condition1
        Completed 90 out of 100
    Conditions not met

Time = 199

smoothSolver:  Solving for Ux, Initial residual = 0.000751209, Final residual = 5.90596e-05, No Iterations 1
smoothSolver:  Solving for Uy, Initial residual = 0.000502054, Final residual = 4.02116e-05, No Iterations 2
GAMG:  Solving for p, Initial residual = 0.000905154, Final residual = 6.47416e-05, No Iterations 2
time step continuity errors : sum local = 0.000109548, global = -9.91858e-06, cumulative = -0.014686
smoothSolver:  Solving for epsilon, Initial residual = 0.00222495, Final residual = 0.000186203, No Iterations 2
smoothSolver:  Solving for k, Initial residual = 0.00199057, Final residual = 0.00016778, No Iterations 2
ExecutionTime = 2.97 s  ClockTime = 3 s

forceCoeffs forceCoeffs1 execute:
    Coefficients
        Cd       : 3.14644	(pressure: 1.88066	viscous: 1.13179	porous: 0.133989)
        Cs       : -3.61802e-18	(pressure: -6.69719e-19	viscous: -3.08643e-18	porous: 1.38135e-19)
        Cl       : 3.221	(pressure: 3.12183	viscous: 0.0639809	porous: 0.0351936)
        CmRoll       : -0.0402625	(pressure: -0.0390228	viscous: -0.000799762	porous: -0.00043992)
        CmPitch       : 0.755054	(pressure: 0.421357	viscous: 0.300371	porous: 0.0333257)
        CmYaw       : 0.0393305	(pressure: 0.0235083	viscous: 0.0141474	porous: 0.00167486)
        Cd(f)    : 1.53296
        Cd(r)    : 1.61348
        Cs(f)    : 0.0393305
        Cs(r)    : -0.0393305
        Cl(f)    : 2.36556
        Cl(r)    : 0.855447
fieldAverage fieldAverage1 write:
    Calculating averages

runTimeControl runTimeControl2 output:
    maxDuration: condition1
        Completed 91 out of 100
    Conditions not met

Time = 200

smoothSolver:  Solving for Ux, Initial residual = 0.000749706, Final residual = 5.897e-05, No Iterations 1
smoothSolver:  Solving for Uy, Initial residual = 0.000501005, Final residual = 4.01336e-05, No Iterations 2
GAMG:  Solving for p, Initial residual = 0.000901573, Final residual = 6.50237e-05, No Iterations 2
time step continuity errors : sum local = 0.000109791, global = -9.76256e-06, cumulative = -0.0146958
smoothSolver:  Solving for epsilon, Initial residual = 0.0022008, Final residual = 0.000184166, No Iterations 2
smoothSolver:  Solving for k, Initial residual = 0.00197701, Final residual = 0.000166622, No Iterations 2
ExecutionTime = 3.03 s  ClockTime = 3 s

forceCoeffs forceCoeffs1 execute:
    Coefficients
        Cd       : 3.14567	(pressure: 1.88034	viscous: 1.13163	porous: 0.133703)
        Cs       : -3.61686e-18	(pressure: -6.68975e-19	viscous: -3.08599e-18	porous: 1.38107e-19)
        Cl       : 3.21883	(pressure: 3.11996	viscous: 0.0637	porous: 0.0351752)
        CmRoll       : -0.0402354	(pressure: -0.0389995	viscous: -0.00079625	porous: -0.00043969)
        CmPitch       : 0.754865	(pressure: 0.421253	viscous: 0.300336	porous: 0.0332762)
        CmYaw       : 0.0393209	(pressure: 0.0235043	viscous: 0.0141453	porous: 0.00167129)
        Cd(f)    : 1.5326
        Cd(r)    : 1.61307
        Cs(f)    : 0.0393209
        Cs(r)    : -0.0393209
        Cl(f)    : 2.36428
        Cl(r)    : 0.854551
fieldAverage fieldAverage1 write:
    Calculating averages

    Writing average fields

runTimeControl runTimeControl2 output:
    maxDuration: condition1
        Completed 92 out of 100
    Conditions not met

Time = 201

smoothSolver:  Solving for Ux, Initial residual = 0.000748216, Final residual = 5.8882e-05, No Iterations 1
smoothSolver:  Solving for Uy, Initial residual = 0.000500017, Final residual = 4.00612e-05, No Iterations 2
GAMG:  Solving for p, Initial residual = 0.000898193, Final residual = 6.53118e-05, No Iterations 2
time step continuity errors : sum local = 0.000110044, global = -9.55117e-06, cumulative = -0.0147053
smoothSolver:  Solving for epsilon, Initial residual = 0.00217699, Final residual = 0.000182156, No Iterations 2
smoothSolver:  Solving for k, Initial residual = 0.0019636, Final residual = 0.000165478, No Iterations 2
ExecutionTime = 3.08 s  ClockTime = 3 s

forceCoeffs forceCoeffs1 execute:
    Coefficients
        Cd       : 3.14489	(pressure: 1.88001	viscous: 1.13146	porous: 0.133418)
        Cs       : -3.61568e-18	(pressure: -6.68226e-19	viscous: -3.08553e-18	porous: 1.38077e-19)
        Cl       : 3.21664	(pressure: 3.11806	viscous: 0.06342	porous: 0.035156)
        CmRoll       : -0.040208	(pressure: -0.0389758	viscous: -0.00079275	porous: -0.00043945)
        CmPitch       : 0.754672	(pressure: 0.421145	viscous: 0.300301	porous: 0.0332265)
        CmYaw       : 0.0393111	(pressure: 0.0235002	viscous: 0.0141433	porous: 0.00166772)
        Cd(f)    : 1.53224
        Cd(r)    : 1.61265
        Cs(f)    : 0.0393111
        Cs(r)    : -0.0393111
        Cl(f)    : 2.36299
        Cl(r)    : 0.853646
fieldAverage fieldAverage1 write:
    Calculating averages

runTimeControl runTimeControl2 output:
    maxDuration: condition1
        Completed 93 out of 100
    Conditions not met

Time = 202

smoothSolver:  Solving for Ux, Initial residual = 0.000746741, Final residual = 5.87966e-05, No Iterations 1
smoothSolver:  Solving for Uy, Initial residual = 0.000499073, Final residual = 3.9994e-05, No Iterations 2
GAMG:  Solving for p, Initial residual = 0.000895356, Final residual = 6.56118e-05, No Iterations 2
time step continuity errors : sum local = 0.000110317, global = -9.28855e-06, cumulative = -0.0147146
smoothSolver:  Solving for epsilon, Initial residual = 0.00215349, Final residual = 0.000180173, No Iterations 2
smoothSolver:  Solving for k, Initial residual = 0.00195036, Final residual = 0.000164348, No Iterations 2
ExecutionTime = 3.09 s  ClockTime = 3 s

forceCoeffs forceCoeffs1 execute:
    Coefficients
        Cd       : 3.14409	(pressure: 1.87967	viscous: 1.13129	porous: 0.133132)
        Cs       : -3.61448e-18	(pressure: -6.67471e-19	viscous: -3.08505e-18	porous: 1.38046e-19)
        Cl       : 3.21441	(pressure: 3.11614	viscous: 0.063141	porous: 0.0351361)
        CmRoll       : -0.0401802	(pressure: -0.0389517	viscous: -0.000789263	porous: -0.000439202)
        CmPitch       : 0.754474	(pressure: 0.421033	viscous: 0.300264	porous: 0.0331766)
        CmYaw       : 0.0393012	(pressure: 0.0234959	viscous: 0.0141411	porous: 0.00166415)
        Cd(f)    : 1.53187
        Cd(r)    : 1.61223
        Cs(f)    : 0.0393012
        Cs(r)    : -0.0393012
        Cl(f)    : 2.36168
        Cl(r)    : 0.852732
fieldAverage fieldAverage1 write:
    Calculating averages

runTimeControl runTimeControl2 output:
    maxDuration: condition1
        Completed 94 out of 100
    Conditions not met

Time = 203

smoothSolver:  Solving for Ux, Initial residual = 0.000745274, Final residual = 5.87133e-05, No Iterations 1
smoothSolver:  Solving for Uy, Initial residual = 0.000498188, Final residual = 3.99302e-05, No Iterations 2
GAMG:  Solving for p, Initial residual = 0.000892845, Final residual = 6.59294e-05, No Iterations 2
time step continuity errors : sum local = 0.000110619, global = -8.98321e-06, cumulative = -0.0147236
smoothSolver:  Solving for epsilon, Initial residual = 0.00213028, Final residual = 0.000178214, No Iterations 2
smoothSolver:  Solving for k, Initial residual = 0.00193727, Final residual = 0.000163232, No Iterations 2
ExecutionTime = 3.1 s  ClockTime = 3 s

forceCoeffs forceCoeffs1 execute:
    Coefficients
        Cd       : 3.14328	(pressure: 1.87933	viscous: 1.13111	porous: 0.132847)
        Cs       : -3.61325e-18	(pressure: -6.66711e-19	viscous: -3.08455e-18	porous: 1.38014e-19)
        Cl       : 3.21216	(pressure: 3.11418	viscous: 0.0628631	porous: 0.0351155)
        CmRoll       : -0.040152	(pressure: -0.0389273	viscous: -0.000785789	porous: -0.000438944)
        CmPitch       : 0.754272	(pressure: 0.420919	viscous: 0.300227	porous: 0.0331264)
        CmYaw       : 0.039291	(pressure: 0.0234916	viscous: 0.0141389	porous: 0.00166059)
        Cd(f)    : 1.53149
        Cd(r)    : 1.61179
        Cs(f)    : 0.039291
        Cs(r)    : -0.039291
        Cl(f)    : 2.36035
        Cl(r)    : 0.85181
fieldAverage fieldAverage1 write:
    Calculating averages

runTimeControl runTimeControl2 output:
    maxDuration: condition1
        Completed 95 out of 100
    Conditions not met

Time = 204

smoothSolver:  Solving for Ux, Initial residual = 0.000743806, Final residual = 5.86308e-05, No Iterations 1
smoothSolver:  Solving for Uy, Initial residual = 0.000497364, Final residual = 3.98696e-05, No Iterations 2
GAMG:  Solving for p, Initial residual = 0.000890698, Final residual = 6.62518e-05, No Iterations 2
time step continuity errors : sum local = 0.000110928, global = -8.64581e-06, cumulative = -0.0147322
smoothSolver:  Solving for epsilon, Initial residual = 0.00210738, Final residual = 0.000176281, No Iterations 2
smoothSolver:  Solving for k, Initial residual = 0.00192436, Final residual = 0.000162129, No Iterations 2
ExecutionTime = 3.12 s  ClockTime = 3 s

forceCoeffs forceCoeffs1 execute:
    Coefficients
        Cd       : 3.14246	(pressure: 1.87897	viscous: 1.13093	porous: 0.132563)
        Cs       : -3.612e-18	(pressure: -6.65947e-19	viscous: -3.08403e-18	porous: 1.37981e-19)
        Cl       : 3.20988	(pressure: 3.1122	viscous: 0.0625862	porous: 0.0350941)
        CmRoll       : -0.0401236	(pressure: -0.0389026	viscous: -0.000782327	porous: -0.000438677)
        CmPitch       : 0.754064	(pressure: 0.4208	viscous: 0.300188	porous: 0.033076)
        CmYaw       : 0.0392807	(pressure: 0.0234871	viscous: 0.0141366	porous: 0.00165703)
        Cd(f)    : 1.5311
        Cd(r)    : 1.61135
        Cs(f)    : 0.0392807
        Cs(r)    : -0.0392807
        Cl(f)    : 2.35901
        Cl(r)    : 0.850878
fieldAverage fieldAverage1 write:
    Calculating averages

runTimeControl runTimeControl2 output:
    maxDuration: condition1
        Completed 96 out of 100
    Conditions not met

Time = 205

smoothSolver:  Solving for Ux, Initial residual = 0.00074234, Final residual = 5.8549e-05, No Iterations 1
smoothSolver:  Solving for Uy, Initial residual = 0.000496578, Final residual = 3.98138e-05, No Iterations 2
GAMG:  Solving for p, Initial residual = 0.000888164, Final residual = 6.6581e-05, No Iterations 2
time step continuity errors : sum local = 0.000111247, global = -8.28757e-06, cumulative = -0.0147405
smoothSolver:  Solving for epsilon, Initial residual = 0.00208476, Final residual = 0.000174372, No Iterations 2
smoothSolver:  Solving for k, Initial residual = 0.00191158, Final residual = 0.000161041, No Iterations 2
ExecutionTime = 3.13 s  ClockTime = 3 s

forceCoeffs forceCoeffs1 execute:
    Coefficients
        Cd       : 3.14161	(pressure: 1.87859	viscous: 1.13074	porous: 0.132278)
        Cs       : -3.61072e-18	(pressure: -6.65178e-19	viscous: -3.08348e-18	porous: 1.37947e-19)
        Cl       : 3.20758	(pressure: 3.1102	viscous: 0.0623103	porous: 0.035072)
        CmRoll       : -0.0400947	(pressure: -0.0388775	viscous: -0.000778879	porous: -0.000438401)
        CmPitch       : 0.753852	(pressure: 0.420678	viscous: 0.300149	porous: 0.0330254)
        CmYaw       : 0.0392701	(pressure: 0.0234824	viscous: 0.0141342	porous: 0.00165348)
        Cd(f)    : 1.53071
        Cd(r)    : 1.6109
        Cs(f)    : 0.0392701
        Cs(r)    : -0.0392701
        Cl(f)    : 2.35764
        Cl(r)    : 0.849938
fieldAverage fieldAverage1 write:
    Calculating averages

runTimeControl runTimeControl2 output:
    maxDuration: condition1
        Completed 97 out of 100
    Conditions not met

Time = 206

smoothSolver:  Solving for Ux, Initial residual = 0.000740871, Final residual = 5.84678e-05, No Iterations 1
smoothSolver:  Solving for Uy, Initial residual = 0.000495849, Final residual = 3.9762e-05, No Iterations 2
GAMG:  Solving for p, Initial residual = 0.000885154, Final residual = 6.69174e-05, No Iterations 2
time step continuity errors : sum local = 0.000111577, global = -7.91886e-06, cumulative = -0.0147484
smoothSolver:  Solving for epsilon, Initial residual = 0.00206244, Final residual = 0.000172488, No Iterations 2
smoothSolver:  Solving for k, Initial residual = 0.00189896, Final residual = 0.000159964, No Iterations 2
ExecutionTime = 3.14 s  ClockTime = 3 s

forceCoeffs forceCoeffs1 execute:
    Coefficients
        Cd       : 3.14075	(pressure: 1.87821	viscous: 1.13054	porous: 0.131994)
        Cs       : -3.60941e-18	(pressure: -6.64405e-19	viscous: -3.08291e-18	porous: 1.37911e-19)
        Cl       : 3.20525	(pressure: 3.10816	viscous: 0.0620356	porous: 0.0350492)
        CmRoll       : -0.0400656	(pressure: -0.0388521	viscous: -0.000775445	porous: -0.000438116)
        CmPitch       : 0.753635	(pressure: 0.420552	viscous: 0.300109	porous: 0.0329745)
        CmYaw       : 0.0392594	(pressure: 0.0234776	viscous: 0.0141318	porous: 0.00164993)
        Cd(f)    : 1.53031
        Cd(r)    : 1.61044
        Cs(f)    : 0.0392594
        Cs(r)    : -0.0392594
        Cl(f)    : 2.35626
        Cl(r)    : 0.84899
fieldAverage fieldAverage1 write:
    Calculating averages

runTimeControl runTimeControl2 output:
    maxDuration: condition1
        Completed 98 out of 100
    Conditions not met

Time = 207

smoothSolver:  Solving for Ux, Initial residual = 0.000739401, Final residual = 5.83865e-05, No Iterations 1
smoothSolver:  Solving for Uy, Initial residual = 0.000495169, Final residual = 3.9713e-05, No Iterations 2
GAMG:  Solving for p, Initial residual = 0.00088195, Final residual = 6.72471e-05, No Iterations 2
time step continuity errors : sum local = 0.000111896, global = -7.54922e-06, cumulative = -0.014756
smoothSolver:  Solving for epsilon, Initial residual = 0.00204042, Final residual = 0.000170628, No Iterations 2
smoothSolver:  Solving for k, Initial residual = 0.00188649, Final residual = 0.0001589, No Iterations 2
ExecutionTime = 3.15 s  ClockTime = 3 s

forceCoeffs forceCoeffs1 execute:
    Coefficients
        Cd       : 3.13987	(pressure: 1.87782	viscous: 1.13034	porous: 0.13171)
        Cs       : -3.60807e-18	(pressure: -6.63628e-19	viscous: -3.08232e-18	porous: 1.37875e-19)
        Cl       : 3.2029	(pressure: 3.10611	viscous: 0.0617621	porous: 0.0350257)
        CmRoll       : -0.0400362	(pressure: -0.0388264	viscous: -0.000772026	porous: -0.000437822)
        CmPitch       : 0.753413	(pressure: 0.420422	viscous: 0.300067	porous: 0.0329235)
        CmYaw       : 0.0392484	(pressure: 0.0234727	viscous: 0.0141293	porous: 0.00164638)
        Cd(f)    : 1.5299
        Cd(r)    : 1.60997
        Cs(f)    : 0.0392484
        Cs(r)    : -0.0392484
        Cl(f)    : 2.35486
        Cl(r)    : 0.848035
fieldAverage fieldAverage1 write:
    Calculating averages

runTimeControl runTimeControl2 output:
    maxDuration: condition1
        Completed 99 out of 100
    Conditions not met

Time = 208

smoothSolver:  Solving for Ux, Initial residual = 0.000737929, Final residual = 5.83036e-05, No Iterations 1
smoothSolver:  Solving for Uy, Initial residual = 0.000494547, Final residual = 3.96675e-05, No Iterations 2
GAMG:  Solving for p, Initial residual = 0.000878668, Final residual = 6.75739e-05, No Iterations 2
time step continuity errors : sum local = 0.000112208, global = -7.18813e-06, cumulative = -0.0147632
smoothSolver:  Solving for epsilon, Initial residual = 0.00201868, Final residual = 0.00016879, No Iterations 2
smoothSolver:  Solving for k, Initial residual = 0.00187417, Final residual = 0.000157848, No Iterations 2
ExecutionTime = 3.16 s  ClockTime = 3 s

forceCoeffs forceCoeffs1 execute:
    Coefficients
        Cd       : 3.13898	(pressure: 1.87741	viscous: 1.13014	porous: 0.131427)
        Cs       : -3.60671e-18	(pressure: -6.62846e-19	viscous: -3.0817e-18	porous: 1.37837e-19)
        Cl       : 3.20052	(pressure: 3.10403	viscous: 0.0614897	porous: 0.0350016)
        CmRoll       : -0.0400065	(pressure: -0.0388004	viscous: -0.000768622	porous: -0.000437519)
        CmPitch       : 0.753186	(pressure: 0.420289	viscous: 0.300025	porous: 0.0328723)
        CmYaw       : 0.0392372	(pressure: 0.0234676	viscous: 0.0141267	porous: 0.00164283)
        Cd(f)    : 1.52948
        Cd(r)    : 1.60949
        Cs(f)    : 0.0392372
        Cs(r)    : -0.0392372
        Cl(f)    : 2.35345
        Cl(r)    : 0.847074
fieldAverage fieldAverage1 write:
    Calculating averages

runTimeControl runTimeControl2 output:
    maxDuration: condition1
        Completed 100 out of 100
    maxDuration: condition1 condition satisfied
    Stopping calculation
    Writing fields

forceCoeffs forceCoeffs1 execute:
    Coefficients
        Cd       : 3.13898	(pressure: 1.87741	viscous: 1.13014	porous: 0.131427)
        Cs       : -3.60671e-18	(pressure: -6.62846e-19	viscous: -3.0817e-18	porous: 1.37837e-19)
        Cl       : 3.20052	(pressure: 3.10403	viscous: 0.0614897	porous: 0.0350016)
        CmRoll       : -0.0400065	(pressure: -0.0388004	viscous: -0.000768622	porous: -0.000437519)
        CmPitch       : 0.753186	(pressure: 0.420289	viscous: 0.300025	porous: 0.0328723)
        CmYaw       : 0.0392372	(pressure: 0.0234676	viscous: 0.0141267	porous: 0.00164283)
        Cd(f)    : 1.52948
        Cd(r)    : 1.60949
        Cs(f)    : 0.0392372
        Cs(r)    : -0.0392372
        Cl(f)    : 2.35345
        Cl(r)    : 0.847074
    Writing average fields


End

