/*---------------------------------------------------------------------------*\
| =========                 |                                                 |
| \\      /  F ield         | OpenFOAM: The Open Source CFD Toolbox           |
|  \\    /   O peration     | Version:  v2106                                 |
|   \\  /    A nd           | Website:  www.openfoam.com                      |
|    \\/     M anipulation  |                                                 |
\*---------------------------------------------------------------------------*/
Build  : _c15bfde3cb-20210624 OPENFOAM=2106
Arch   : "LSB;label=32;scalar=64"
Exec   : /share/apps/foamMeshToMED/OpenFOAMv2106/foamMeshToMED
Date   : Nov 15 2023
Time   : 15:21:21
Host   : n-0
PID    : 379364
I/O    : uncollated
Case   : /home/finzeo/Tesis/Mallas/GTS_Storms_OF2106/GTS_1/GTS_2106_v23
nProcs : 1
trapFpe: Floating point exception trapping enabled (FOAM_SIGFPE).
fileModificationChecking : Monitoring run-time modified files using timeStampMaster (fileModificationSkew 5, maxFileModificationPolls 20)
allowSystemOperations : Allowing user-supplied system call operations

// * * * * * * * * * * * * * * * * * * * * * * * * * * * * * * * * * * * * * //
Create time

Read the mesh

Creating MEDfile
Writing Comment
Creating Mesh
Translating time = 4
wrote 66010858 prisms with each 8 nodes
wrote 18640 prisms with each 6 nodes
wrote 737922 polyhedrons
going to write face patches to med 
doing to write face prisms for 203
going throught the data
writing to med
wrote 138 face prisms with each 3 nodes
wrote families for 203
doing to write face prisms for 204
going throught the data
writing to med
wrote 1295667 face prisms with each 4 nodes
wrote families for 204
wrote 7754 polygons
wrote families for 400
going to write families
wrote familyinfo for patch inlet
wrote familyinfo for patch outlet
wrote familyinfo for patch left
wrote familyinfo for patch right
wrote familyinfo for patch floor
wrote familyinfo for patch top
wrote familyinfo for patch gtsModel
wrote familyinfo for patch gtsStruts
wrote familyinfo for patch gtsStrutsPads
End

